<?xml version="1.0" encoding="UTF-8"?>
<!-- generated on 2019-05-16 11:59:37.627562 by $Id$
  options: -n londonSmall.net.xml -o londonSmall.trips.xml -r londonSmall.rou.xml -e 500 -a additional.type.xml <doubleminus>trip-attributes type="typedist1" departLane="best" departPos="random"
-->
<routes xmlns:xsi="http://www.w3.org/2001/XMLSchema-instance" xsi:noNamespaceSchemaLocation="http://sumo.dlr.de/xsd/routes_file.xsd">
    <trip id="0" depart="0.00" from="-233068399#2" to="4370938#1" type="typedist1" departLane="best" departPos="random"/>
    <trip id="1" depart="1.00" from="-4068453" to="241253345#1" type="typedist1" departLane="best" departPos="random"/>
    <trip id="2" depart="2.00" from="18121248#0" to="38895571#2" type="typedist1" departLane="best" departPos="random"/>
    <trip id="3" depart="3.00" from="-251621966#0" to="-305358746#1" type="typedist1" departLane="best" departPos="random"/>
    <trip id="4" depart="4.00" from="-148011238#2" to="574827980#1" type="typedist1" departLane="best" departPos="random"/>
    <trip id="5" depart="5.00" from="-204726687#4" to="302690919#0" type="typedist1" departLane="best" departPos="random"/>
    <trip id="6" depart="6.00" from="-379359029#2" to="595077677#0" type="typedist1" departLane="best" departPos="random"/>
    <trip id="7" depart="7.00" from="-587554507#2" to="-4253500" type="typedist1" departLane="best" departPos="random"/>
    <trip id="8" depart="8.00" from="4068457" to="-38895571#3" type="typedist1" departLane="best" departPos="random"/>
    <trip id="9" depart="9.00" from="-18791977#0" to="-154132290#1" type="typedist1" departLane="best" departPos="random"/>
    <trip id="10" depart="10.00" from="4259293#2" to="204726685" type="typedist1" departLane="best" departPos="random"/>
    <trip id="11" depart="11.00" from="-38748215#3" to="156155831" type="typedist1" departLane="best" departPos="random"/>
    <trip id="12" depart="12.00" from="502230296#1" to="38748215#1" type="typedist1" departLane="best" departPos="random"/>
    <trip id="13" depart="13.00" from="509181624#2" to="221032335#0" type="typedist1" departLane="best" departPos="random"/>
    <trip id="14" depart="14.00" from="-156871862" to="154116818#1" type="typedist1" departLane="best" departPos="random"/>
    <trip id="15" depart="15.00" from="-245170114" to="4255551#2" type="typedist1" departLane="best" departPos="random"/>
    <trip id="16" depart="16.00" from="52923636" to="-38310454#7" type="typedist1" departLane="best" departPos="random"/>
    <trip id="17" depart="17.00" from="-147997980#2" to="14200879#3" type="typedist1" departLane="best" departPos="random"/>
    <trip id="18" depart="18.00" from="-154029153#0" to="38748215#0" type="typedist1" departLane="best" departPos="random"/>
    <trip id="19" depart="19.00" from="587552474#3" to="154029153#3" type="typedist1" departLane="best" departPos="random"/>
    <trip id="20" depart="20.00" from="154029169#5" to="-74865693#0" type="typedist1" departLane="best" departPos="random"/>
    <trip id="21" depart="21.00" from="156155826" to="379359030#2" type="typedist1" departLane="best" departPos="random"/>
    <trip id="22" depart="22.00" from="40976543" to="241253345#1" type="typedist1" departLane="best" departPos="random"/>
    <trip id="23" depart="23.00" from="282036542#0" to="-245170293#0" type="typedist1" departLane="best" departPos="random"/>
    <trip id="24" depart="24.00" from="379359031#1" to="47007862#0" type="typedist1" departLane="best" departPos="random"/>
    <trip id="25" depart="25.00" from="-174609675" to="4259448" type="typedist1" departLane="best" departPos="random"/>
    <trip id="26" depart="26.00" from="33608388" to="-233624541#1" type="typedist1" departLane="best" departPos="random"/>
    <trip id="27" depart="27.00" from="55026143#1" to="-156155829" type="typedist1" departLane="best" departPos="random"/>
    <trip id="28" depart="28.00" from="4256286" to="-4253498#1" type="typedist1" departLane="best" departPos="random"/>
    <trip id="29" depart="29.00" from="233070705#1" to="156155818" type="typedist1" departLane="best" departPos="random"/>
    <trip id="30" depart="30.00" from="-233068399#1" to="-529829560#1" type="typedist1" departLane="best" departPos="random"/>
    <trip id="31" depart="31.00" from="-204004565#3" to="494579076" type="typedist1" departLane="best" departPos="random"/>
    <trip id="32" depart="32.00" from="-233624541#1" to="38310454#7" type="typedist1" departLane="best" departPos="random"/>
    <trip id="33" depart="33.00" from="148008512#1" to="4068448#2" type="typedist1" departLane="best" departPos="random"/>
    <trip id="34" depart="34.00" from="204726687#3" to="4268168" type="typedist1" departLane="best" departPos="random"/>
    <trip id="35" depart="35.00" from="379359031#0" to="-61960153#2" type="typedist1" departLane="best" departPos="random"/>
    <trip id="36" depart="36.00" from="18771038#5" to="-38895571#5" type="typedist1" departLane="best" departPos="random"/>
    <trip id="37" depart="37.00" from="154029169#2" to="4253807#0" type="typedist1" departLane="best" departPos="random"/>
    <trip id="38" depart="38.00" from="233624301#1" to="303559641#3" type="typedist1" departLane="best" departPos="random"/>
    <trip id="39" depart="39.00" from="74865693#6" to="-232724480#1" type="typedist1" departLane="best" departPos="random"/>
    <trip id="40" depart="40.00" from="156310004#2" to="-148008512#1" type="typedist1" departLane="best" departPos="random"/>
    <trip id="41" depart="41.00" from="18791977#1" to="233067163#1" type="typedist1" departLane="best" departPos="random"/>
    <trip id="42" depart="42.00" from="77107639#0" to="667552920#0" type="typedist1" departLane="best" departPos="random"/>
    <trip id="43" depart="43.00" from="379356931#0" to="574827980#2" type="typedist1" departLane="best" departPos="random"/>
    <trip id="44" depart="44.00" from="4068445#0" to="148004642#1" type="typedist1" departLane="best" departPos="random"/>
    <trip id="45" depart="45.00" from="-4259249#1" to="318234581#1" type="typedist1" departLane="best" departPos="random"/>
    <trip id="46" depart="46.00" from="191756186" to="-38895571#2" type="typedist1" departLane="best" departPos="random"/>
    <trip id="47" depart="47.00" from="-615056689#2" to="672552145#0" type="typedist1" departLane="best" departPos="random"/>
    <trip id="48" depart="48.00" from="114925568" to="4259346#1" type="typedist1" departLane="best" departPos="random"/>
    <trip id="49" depart="49.00" from="147997990" to="-232918995#0" type="typedist1" departLane="best" departPos="random"/>
    <trip id="50" depart="50.00" from="-532636971#5" to="-240343183#5" type="typedist1" departLane="best" departPos="random"/>
    <trip id="51" depart="51.00" from="226108164#1" to="148890709#0" type="typedist1" departLane="best" departPos="random"/>
    <trip id="52" depart="52.00" from="38310454#5" to="147984991#1" type="typedist1" departLane="best" departPos="random"/>
    <trip id="53" depart="53.00" from="204726887#2" to="-207104730#4" type="typedist1" departLane="best" departPos="random"/>
    <trip id="54" depart="54.00" from="-303559637" to="672552145#0" type="typedist1" departLane="best" departPos="random"/>
    <trip id="55" depart="55.00" from="-468680743#1" to="59850729#2" type="typedist1" departLane="best" departPos="random"/>
    <trip id="56" depart="56.00" from="282036542#0" to="154029169#0" type="typedist1" departLane="best" departPos="random"/>
    <trip id="57" depart="57.00" from="-30038923" to="670208076#4" type="typedist1" departLane="best" departPos="random"/>
    <trip id="58" depart="58.00" from="4068447#3" to="302690916#0" type="typedist1" departLane="best" departPos="random"/>
    <trip id="59" depart="59.00" from="240343183#5" to="-38748215#3" type="typedist1" departLane="best" departPos="random"/>
    <trip id="60" depart="60.00" from="-241253345#0" to="207104730#2" type="typedist1" departLane="best" departPos="random"/>
    <trip id="61" depart="61.00" from="379359033#1" to="-672552145#1" type="typedist1" departLane="best" departPos="random"/>
    <trip id="62" depart="62.00" from="148890709#0" to="-61960153#0" type="typedist1" departLane="best" departPos="random"/>
    <trip id="63" depart="63.00" from="30279890#0" to="148008512#2" type="typedist1" departLane="best" departPos="random"/>
    <trip id="64" depart="64.00" from="46180198#5" to="574827980#4" type="typedist1" departLane="best" departPos="random"/>
    <trip id="65" depart="65.00" from="235991623#0" to="302690916#1" type="typedist1" departLane="best" departPos="random"/>
    <trip id="66" depart="66.00" from="149052139" to="-4253850#3" type="typedist1" departLane="best" departPos="random"/>
    <trip id="67" depart="67.00" from="-232486356#1" to="-209215048#0" type="typedist1" departLane="best" departPos="random"/>
    <trip id="68" depart="68.00" from="7970640" to="156871862" type="typedist1" departLane="best" departPos="random"/>
    <trip id="69" depart="69.00" from="-532636971#2" to="501287734#0" type="typedist1" departLane="best" departPos="random"/>
    <trip id="70" depart="70.00" from="-204726887#0" to="616993987#3" type="typedist1" departLane="best" departPos="random"/>
    <trip id="71" depart="71.00" from="204726687#1" to="303559641#6" type="typedist1" departLane="best" departPos="random"/>
    <trip id="72" depart="72.00" from="4253731#1" to="-251621966#1" type="typedist1" departLane="best" departPos="random"/>
    <trip id="73" depart="73.00" from="435994064" to="318234580" type="typedist1" departLane="best" departPos="random"/>
    <trip id="74" depart="74.00" from="221032335#1" to="18121248#1" type="typedist1" departLane="best" departPos="random"/>
    <trip id="75" depart="75.00" from="4082605" to="-22760595#1" type="typedist1" departLane="best" departPos="random"/>
    <trip id="76" depart="76.00" from="499705520#1" to="55026158" type="typedist1" departLane="best" departPos="random"/>
    <trip id="77" depart="77.00" from="-204004565#2" to="-22760595#2" type="typedist1" departLane="best" departPos="random"/>
    <trip id="78" depart="78.00" from="202195796#1" to="-22760595#1" type="typedist1" departLane="best" departPos="random"/>
    <trip id="79" depart="79.00" from="-46339899#1" to="312319046" type="typedist1" departLane="best" departPos="random"/>
    <trip id="80" depart="80.00" from="147997980#3" to="154116824" type="typedist1" departLane="best" departPos="random"/>
    <trip id="81" depart="81.00" from="-148893868#2" to="-24417815" type="typedist1" departLane="best" departPos="random"/>
    <trip id="82" depart="82.00" from="-154029150#3" to="-40976541#1" type="typedist1" departLane="best" departPos="random"/>
    <trip id="83" depart="83.00" from="-305358746#1" to="-4253727" type="typedist1" departLane="best" departPos="random"/>
    <trip id="84" depart="84.00" from="57007655#1" to="581021338#1" type="typedist1" departLane="best" departPos="random"/>
    <trip id="85" depart="85.00" from="4082609" to="4259446#0" type="typedist1" departLane="best" departPos="random"/>
    <trip id="86" depart="86.00" from="233695503#2" to="209215048#2" type="typedist1" departLane="best" departPos="random"/>
    <trip id="87" depart="87.00" from="2199747#1" to="209692646#2" type="typedist1" departLane="best" departPos="random"/>
    <trip id="88" depart="88.00" from="-4068451#2" to="-209692646#2" type="typedist1" departLane="best" departPos="random"/>
    <trip id="89" depart="89.00" from="182210376#0" to="-615664502#2" type="typedist1" departLane="best" departPos="random"/>
    <trip id="90" depart="90.00" from="-4253339#1" to="-148008512#8" type="typedist1" departLane="best" departPos="random"/>
    <trip id="91" depart="91.00" from="46180198#7" to="38310454#7" type="typedist1" departLane="best" departPos="random"/>
    <trip id="92" depart="92.00" from="-232918995#0" to="4259445#1" type="typedist1" departLane="best" departPos="random"/>
    <trip id="93" depart="93.00" from="-232920161#1" to="436938218#2" type="typedist1" departLane="best" departPos="random"/>
    <trip id="94" depart="94.00" from="476448486#1" to="-379359027" type="typedist1" departLane="best" departPos="random"/>
    <trip id="95" depart="95.00" from="4256081" to="487082555" type="typedist1" departLane="best" departPos="random"/>
    <trip id="96" depart="96.00" from="-147997980#3" to="595077677#0" type="typedist1" departLane="best" departPos="random"/>
    <trip id="97" depart="97.00" from="-251621973#0" to="665756832" type="typedist1" departLane="best" departPos="random"/>
    <trip id="98" depart="98.00" from="-147984991#1" to="-148155190#0" type="typedist1" departLane="best" departPos="random"/>
    <trip id="99" depart="99.00" from="4253713#2" to="-18769882#0" type="typedist1" departLane="best" departPos="random"/>
    <trip id="100" depart="100.00" from="148890709#1" to="61960154#0" type="typedist1" departLane="best" departPos="random"/>
    <trip id="101" depart="101.00" from="209692646#1" to="4253713#0" type="typedist1" departLane="best" departPos="random"/>
    <trip id="102" depart="102.00" from="38310454#1" to="209692644#1" type="typedist1" departLane="best" departPos="random"/>
    <trip id="103" depart="103.00" from="251621971" to="4259446#3" type="typedist1" departLane="best" departPos="random"/>
    <trip id="104" depart="104.00" from="114925568" to="31435325#1" type="typedist1" departLane="best" departPos="random"/>
    <trip id="105" depart="105.00" from="156155835#0" to="25469620" type="typedist1" departLane="best" departPos="random"/>
    <trip id="106" depart="106.00" from="4253291#0" to="240343183#1" type="typedist1" departLane="best" departPos="random"/>
    <trip id="107" depart="107.00" from="476448492#0" to="235991133#3" type="typedist1" departLane="best" departPos="random"/>
    <trip id="108" depart="108.00" from="156155824" to="55026143#2" type="typedist1" departLane="best" departPos="random"/>
    <trip id="109" depart="109.00" from="209215048#0" to="209690397#2" type="typedist1" departLane="best" departPos="random"/>
    <trip id="110" depart="110.00" from="-4068453" to="32629148#1" type="typedist1" departLane="best" departPos="random"/>
    <trip id="111" depart="111.00" from="148890693" to="10811127#1" type="typedist1" departLane="best" departPos="random"/>
    <trip id="112" depart="112.00" from="331101153#0" to="251621968#0" type="typedist1" departLane="best" departPos="random"/>
    <trip id="113" depart="113.00" from="154029161#0" to="4258928" type="typedist1" departLane="best" departPos="random"/>
    <trip id="114" depart="114.00" from="-38895571#0" to="581022545#1" type="typedist1" departLane="best" departPos="random"/>
    <trip id="115" depart="115.00" from="435994063#0" to="38748214" type="typedist1" departLane="best" departPos="random"/>
    <trip id="116" depart="116.00" from="154029150#0" to="4068450#1" type="typedist1" departLane="best" departPos="random"/>
    <trip id="117" depart="117.00" from="155032365#1" to="4068450#1" type="typedist1" departLane="best" departPos="random"/>
    <trip id="118" depart="118.00" from="-154132290#0" to="196122556" type="typedist1" departLane="best" departPos="random"/>
    <trip id="119" depart="119.00" from="154132288#0" to="236033744" type="typedist1" departLane="best" departPos="random"/>
    <trip id="120" depart="120.00" from="-4256489#0" to="574830102#1" type="typedist1" departLane="best" departPos="random"/>
    <trip id="121" depart="121.00" from="240343183#0" to="379359027" type="typedist1" departLane="best" departPos="random"/>
    <trip id="122" depart="122.00" from="233624301#2" to="-156155815#0" type="typedist1" departLane="best" departPos="random"/>
    <trip id="123" depart="123.00" from="616993987#0" to="-154029169#5" type="typedist1" departLane="best" departPos="random"/>
    <trip id="124" depart="124.00" from="-669856890#1" to="-581021338#0" type="typedist1" departLane="best" departPos="random"/>
    <trip id="125" depart="125.00" from="318234581#2" to="232671088#1" type="typedist1" departLane="best" departPos="random"/>
    <trip id="126" depart="126.00" from="156155826" to="10811127#0" type="typedist1" departLane="best" departPos="random"/>
    <trip id="127" depart="127.00" from="14200879#1" to="-581021338#1" type="typedist1" departLane="best" departPos="random"/>
    <trip id="128" depart="128.00" from="209692628#0" to="33608388" type="typedist1" departLane="best" departPos="random"/>
    <trip id="129" depart="129.00" from="209689554#0" to="-116353210" type="typedist1" departLane="best" departPos="random"/>
    <trip id="130" depart="130.00" from="4253512#1" to="-233068399#2" type="typedist1" departLane="best" departPos="random"/>
    <trip id="131" depart="131.00" from="154132282#0" to="-147984991#2" type="typedist1" departLane="best" departPos="random"/>
    <trip id="132" depart="132.00" from="4068450#1" to="-42709093#4" type="typedist1" departLane="best" departPos="random"/>
    <trip id="133" depart="133.00" from="154029169#5" to="96853927" type="typedist1" departLane="best" departPos="random"/>
    <trip id="134" depart="134.00" from="55026151#0" to="-232486356#0" type="typedist1" departLane="best" departPos="random"/>
    <trip id="135" depart="135.00" from="-74865693#2" to="423007010#1" type="typedist1" departLane="best" departPos="random"/>
    <trip id="136" depart="136.00" from="-46180198#1" to="226108164#2" type="typedist1" departLane="best" departPos="random"/>
    <trip id="137" depart="137.00" from="-18771038#5" to="-42709093#5" type="typedist1" departLane="best" departPos="random"/>
    <trip id="138" depart="138.00" from="4253493#1" to="-18771038#3" type="typedist1" departLane="best" departPos="random"/>
    <trip id="139" depart="139.00" from="209692644#1" to="194259717#2" type="typedist1" departLane="best" departPos="random"/>
    <trip id="140" depart="140.00" from="587550106#2" to="47007861" type="typedist1" departLane="best" departPos="random"/>
    <trip id="141" depart="141.00" from="240343066#1" to="-30280298" type="typedist1" departLane="best" departPos="random"/>
    <trip id="142" depart="142.00" from="574827980#2" to="42709093#3" type="typedist1" departLane="best" departPos="random"/>
    <trip id="143" depart="143.00" from="-154029161#3" to="-38310454#8" type="typedist1" departLane="best" departPos="random"/>
    <trip id="144" depart="144.00" from="233070706" to="-509518151#0" type="typedist1" departLane="best" departPos="random"/>
    <trip id="145" depart="145.00" from="46180198#5" to="-40976541#0" type="typedist1" departLane="best" departPos="random"/>
    <trip id="146" depart="146.00" from="532438744#1" to="5090246#0" type="typedist1" departLane="best" departPos="random"/>
    <trip id="147" depart="147.00" from="-47007863#1" to="-148890709#1" type="typedist1" departLane="best" departPos="random"/>
    <trip id="148" depart="148.00" from="241253347#2" to="202195797#0" type="typedist1" departLane="best" departPos="random"/>
    <trip id="149" depart="149.00" from="475957302" to="4253339#1" type="typedist1" departLane="best" departPos="random"/>
    <trip id="150" depart="150.00" from="241253347#1" to="30273503#1" type="typedist1" departLane="best" departPos="random"/>
    <trip id="151" depart="151.00" from="233624301#2" to="147980654#1" type="typedist1" departLane="best" departPos="random"/>
    <trip id="152" depart="152.00" from="-148011238#4" to="61960153#1" type="typedist1" departLane="best" departPos="random"/>
    <trip id="153" depart="153.00" from="47007863#0" to="4253713#5" type="typedist1" departLane="best" departPos="random"/>
    <trip id="154" depart="154.00" from="148890688#1" to="154340959#3" type="typedist1" departLane="best" departPos="random"/>
    <trip id="155" depart="155.00" from="423007010#1" to="303559641#8" type="typedist1" departLane="best" departPos="random"/>
    <trip id="156" depart="156.00" from="532438744#0" to="148011238#0" type="typedist1" departLane="best" departPos="random"/>
    <trip id="157" depart="157.00" from="154340959#0" to="154340959#1" type="typedist1" departLane="best" departPos="random"/>
    <trip id="158" depart="158.00" from="-240343183#6" to="209690397#1" type="typedist1" departLane="best" departPos="random"/>
    <trip id="159" depart="159.00" from="4259293#3" to="-149052140#0" type="typedist1" departLane="best" departPos="random"/>
    <trip id="160" depart="160.00" from="19212464" to="209689478#4" type="typedist1" departLane="best" departPos="random"/>
    <trip id="161" depart="161.00" from="156155815#0" to="32629353#0" type="typedist1" departLane="best" departPos="random"/>
    <trip id="162" depart="162.00" from="148008512#2" to="19212464" type="typedist1" departLane="best" departPos="random"/>
    <trip id="163" depart="163.00" from="587552474#0" to="-38895571#6" type="typedist1" departLane="best" departPos="random"/>
    <trip id="164" depart="164.00" from="137518418#1" to="502230296#5" type="typedist1" departLane="best" departPos="random"/>
    <trip id="165" depart="165.00" from="10811127#0" to="415101811#0" type="typedist1" departLane="best" departPos="random"/>
    <trip id="166" depart="166.00" from="154029153#0" to="59718434#5" type="typedist1" departLane="best" departPos="random"/>
    <trip id="167" depart="167.00" from="4253510" to="233623731#0" type="typedist1" departLane="best" departPos="random"/>
    <trip id="168" depart="168.00" from="-240343183#3" to="615664503#1" type="typedist1" departLane="best" departPos="random"/>
    <trip id="169" depart="169.00" from="17944924#1" to="154029152#3" type="typedist1" departLane="best" departPos="random"/>
    <trip id="170" depart="170.00" from="-232920161#2" to="4256272#2" type="typedist1" departLane="best" departPos="random"/>
    <trip id="171" depart="171.00" from="18791975" to="305358746#0" type="typedist1" departLane="best" departPos="random"/>
    <trip id="172" depart="172.00" from="-233623731#1" to="147997980#4" type="typedist1" departLane="best" departPos="random"/>
    <trip id="173" depart="173.00" from="38748214" to="-30038926#2" type="typedist1" departLane="best" departPos="random"/>
    <trip id="174" depart="174.00" from="-148004647" to="240343183#5" type="typedist1" departLane="best" departPos="random"/>
    <trip id="175" depart="175.00" from="-204004565#3" to="-66676148" type="typedist1" departLane="best" departPos="random"/>
    <trip id="176" depart="176.00" from="32629148#1" to="615664502#0" type="typedist1" departLane="best" departPos="random"/>
    <trip id="177" depart="177.00" from="-232920161#0" to="-57007567#1" type="typedist1" departLane="best" departPos="random"/>
    <trip id="178" depart="178.00" from="147997993#0" to="154029161#2" type="typedist1" departLane="best" departPos="random"/>
    <trip id="179" depart="179.00" from="147997980#3" to="4068447#3" type="typedist1" departLane="best" departPos="random"/>
    <trip id="180" depart="180.00" from="379356931#0" to="-40976541#2" type="typedist1" departLane="best" departPos="random"/>
    <trip id="181" depart="181.00" from="616993987#3" to="415101811#0" type="typedist1" departLane="best" departPos="random"/>
    <trip id="182" depart="182.00" from="148893863" to="4486905#0" type="typedist1" departLane="best" departPos="random"/>
    <trip id="183" depart="183.00" from="673997360#1" to="22760595#2" type="typedist1" departLane="best" departPos="random"/>
    <trip id="184" depart="184.00" from="38310454#2" to="4253807#0" type="typedist1" departLane="best" departPos="random"/>
    <trip id="185" depart="185.00" from="233070703#0" to="204726687#1" type="typedist1" departLane="best" departPos="random"/>
    <trip id="186" depart="186.00" from="-104867630" to="4254943#1" type="typedist1" departLane="best" departPos="random"/>
    <trip id="187" depart="187.00" from="667569299#1" to="251621969#1" type="typedist1" departLane="best" departPos="random"/>
    <trip id="188" depart="188.00" from="-137518417#0" to="30279893#1" type="typedist1" departLane="best" departPos="random"/>
    <trip id="189" depart="189.00" from="154029169#5" to="-251621973#0" type="typedist1" departLane="best" departPos="random"/>
    <trip id="190" depart="190.00" from="-27005809#0" to="154116814#1" type="typedist1" departLane="best" departPos="random"/>
    <trip id="191" depart="191.00" from="-532636971#4" to="-207104730#0" type="typedist1" departLane="best" departPos="random"/>
    <trip id="192" depart="192.00" from="156155821" to="-241253345#0" type="typedist1" departLane="best" departPos="random"/>
    <trip id="193" depart="193.00" from="149052140#0" to="137515284#0" type="typedist1" departLane="best" departPos="random"/>
    <trip id="194" depart="194.00" from="46180198#6" to="-204004565#0" type="typedist1" departLane="best" departPos="random"/>
    <trip id="195" depart="195.00" from="156310004#1" to="69961424#0" type="typedist1" departLane="best" departPos="random"/>
    <trip id="196" depart="196.00" from="156155835#1" to="-673997360#2" type="typedist1" departLane="best" departPos="random"/>
    <trip id="197" depart="197.00" from="191756188" to="156155839" type="typedist1" departLane="best" departPos="random"/>
    <trip id="198" depart="198.00" from="-104867630" to="587548552#0" type="typedist1" departLane="best" departPos="random"/>
    <trip id="199" depart="199.00" from="-4253727" to="17944926#2" type="typedist1" departLane="best" departPos="random"/>
    <trip id="200" depart="200.00" from="235991133#1" to="148890688#0" type="typedist1" departLane="best" departPos="random"/>
    <trip id="201" depart="201.00" from="670208077" to="251621969#1" type="typedist1" departLane="best" departPos="random"/>
    <trip id="202" depart="202.00" from="38895571#5" to="476448496" type="typedist1" departLane="best" departPos="random"/>
    <trip id="203" depart="203.00" from="31959#3" to="615056689#2" type="typedist1" departLane="best" departPos="random"/>
    <trip id="204" depart="204.00" from="-4254081" to="147997984#2" type="typedist1" departLane="best" departPos="random"/>
    <trip id="205" depart="205.00" from="436938220#0" to="237132504#1" type="typedist1" departLane="best" departPos="random"/>
    <trip id="206" depart="206.00" from="-262200664" to="-198190853#2" type="typedist1" departLane="best" departPos="random"/>
    <trip id="207" depart="207.00" from="38310454#8" to="233068399#3" type="typedist1" departLane="best" departPos="random"/>
    <trip id="208" depart="208.00" from="156155827" to="156310004#2" type="typedist1" departLane="best" departPos="random"/>
    <trip id="209" depart="209.00" from="209691454#1" to="-65502486#1" type="typedist1" departLane="best" departPos="random"/>
    <trip id="210" depart="210.00" from="-154116818#1" to="240343183#0" type="typedist1" departLane="best" departPos="random"/>
    <trip id="211" depart="211.00" from="251621969#3" to="616993987#1" type="typedist1" departLane="best" departPos="random"/>
    <trip id="212" depart="212.00" from="4068447#1" to="251621969#1" type="typedist1" departLane="best" departPos="random"/>
    <trip id="213" depart="213.00" from="4254943#1" to="156155829" type="typedist1" departLane="best" departPos="random"/>
    <trip id="214" depart="214.00" from="27005809#1" to="232724588" type="typedist1" departLane="best" departPos="random"/>
    <trip id="215" depart="215.00" from="676537660" to="-211479865#0" type="typedist1" departLane="best" departPos="random"/>
    <trip id="216" depart="216.00" from="104867630" to="59718434#0" type="typedist1" departLane="best" departPos="random"/>
    <trip id="217" depart="217.00" from="4253731#1" to="509350837#1" type="typedist1" departLane="best" departPos="random"/>
    <trip id="218" depart="218.00" from="-672552145#3" to="-501287734#1" type="typedist1" departLane="best" departPos="random"/>
    <trip id="219" depart="219.00" from="209690398" to="-31435295" type="typedist1" departLane="best" departPos="random"/>
    <trip id="220" depart="220.00" from="4068451#1" to="137518418#1" type="typedist1" departLane="best" departPos="random"/>
    <trip id="221" depart="221.00" from="154340959#3" to="156155827" type="typedist1" departLane="best" departPos="random"/>
    <trip id="222" depart="222.00" from="38748216#1" to="-4068449" type="typedist1" departLane="best" departPos="random"/>
    <trip id="223" depart="223.00" from="-204726687#5" to="-174609675" type="typedist1" departLane="best" departPos="random"/>
    <trip id="224" depart="224.00" from="74865693#0" to="331101153#0" type="typedist1" departLane="best" departPos="random"/>
    <trip id="225" depart="225.00" from="232724480#0" to="581021338#0" type="typedist1" departLane="best" departPos="random"/>
    <trip id="226" depart="226.00" from="-38895571#3" to="-154029155" type="typedist1" departLane="best" departPos="random"/>
    <trip id="227" depart="227.00" from="209689477" to="379359030#2" type="typedist1" departLane="best" departPos="random"/>
    <trip id="228" depart="228.00" from="156155819#1" to="-154132290#2" type="typedist1" departLane="best" departPos="random"/>
    <trip id="229" depart="229.00" from="204726687#2" to="-4253850#0" type="typedist1" departLane="best" departPos="random"/>
    <trip id="230" depart="230.00" from="-240343183#2" to="-28355619#0" type="typedist1" departLane="best" departPos="random"/>
    <trip id="231" depart="231.00" from="2199750" to="55026149#1" type="typedist1" departLane="best" departPos="random"/>
    <trip id="232" depart="232.00" from="302690920" to="4256286" type="typedist1" departLane="best" departPos="random"/>
    <trip id="233" depart="233.00" from="207104730#2" to="672552145#3" type="typedist1" departLane="best" departPos="random"/>
    <trip id="234" depart="234.00" from="-232920161#1" to="667552911#0" type="typedist1" departLane="best" departPos="random"/>
    <trip id="235" depart="235.00" from="-42709094#1" to="59850729#0" type="typedist1" departLane="best" departPos="random"/>