<?xml version="1.0" encoding="UTF-8"?>

<!-- generated on Tue Jul 23 16:11:49 2019 by Eclipse SUMO polyconvert Version 1.1.0
<configuration xmlns:xsi="http://www.w3.org/2001/XMLSchema-instance" xsi:noNamespaceSchemaLocation="http://sumo.dlr.de/xsd/polyconvertConfiguration.xsd">

    <input>
        <net-file value="londonSmall.net.xml"/>
        <osm-files value="londonSmall.osm.xml"/>
    </input>

    <output>
        <output-file value="londonSmall.poly.xml"/>
    </output>

    <processing>
        <poi-layer-offset value="5"/>
    </processing>

</configuration>
-->

<additional xmlns:xsi="http://www.w3.org/2001/XMLSchema-instance" xsi:noNamespaceSchemaLocation="http://sumo.dlr.de/xsd/additional_file.xsd">
    <location netOffset="-694611.55,-5708992.82" convBoundary="0.00,-1161.05,10416.34,4636.03" origBoundary="-0.195490,51.486273,-0.044806,51.539793" projParameter="+proj=utm +zone=30 +ellps=WGS84 +datum=WGS84 +units=m +no_defs"/>

    <poly id="106631026" type="building" color="255,230,230" fill="1" layer="-1.00" shape="3202.761856,1866.488256 3202.736721,1867.311278 3203.286500,1867.822656 3204.059131,1867.964127 3227.208759,1850.148394 3219.560784,1838.703940 3216.692231,1837.790380 3202.761856,1866.488256"/>
    <poly id="106631027" type="building" color="255,230,230" fill="1" layer="-1.00" shape="3185.811888,1875.871456 3192.579205,1856.615313 3196.159057,1846.053972 3197.504813,1842.186855 3193.738751,1840.948809 3191.523164,1840.216608 3190.656492,1842.844128 3184.284621,1840.725057 3189.861394,1823.315481 3166.108091,1814.906846 3159.042441,1812.404446 3147.164646,1848.164189 3152.465144,1849.784919 3161.317071,1852.267849 3164.836862,1853.585354 3164.355243,1857.207778 3162.725569,1863.012487 3160.662801,1870.659888 3167.365869,1871.767406 3169.054645,1872.111605 3172.214976,1872.847213 3173.758503,1873.174617 3174.943464,1873.432370 3185.811888,1875.871456"/>
    <poly id="106631027#1" type="shop" color="237,199,255" fill="1" layer="-1.00" shape="3185.811888,1875.871456 3192.579205,1856.615313 3196.159057,1846.053972 3197.504813,1842.186855 3193.738751,1840.948809 3191.523164,1840.216608 3190.656492,1842.844128 3184.284621,1840.725057 3189.861394,1823.315481 3166.108091,1814.906846 3159.042441,1812.404446 3147.164646,1848.164189 3152.465144,1849.784919 3161.317071,1852.267849 3164.836862,1853.585354 3164.355243,1857.207778 3162.725569,1863.012487 3160.662801,1870.659888 3167.365869,1871.767406 3169.054645,1872.111605 3172.214976,1872.847213 3173.758503,1873.174617 3174.943464,1873.432370 3185.811888,1875.871456"/>
    <poly id="106772291" type="building" color="255,230,230" fill="1" layer="-1.00" shape="3707.119033,2025.286460 3701.150110,2030.999392 3693.914928,2034.803262 3685.272420,2074.797309 3695.402698,2077.798848 3694.746503,2080.367711 3703.947219,2083.332939 3704.941946,2081.701531 3729.410371,2089.717635 3728.962750,2091.749022 3739.453223,2095.132194 3740.275440,2093.115451 3745.981760,2094.830638 3748.832092,2093.539023 3764.951556,2043.392502 3764.040922,2040.561957 3713.342949,2028.870282 3713.365672,2026.866829 3707.119033,2025.286460"/>
    <poly id="107039262" type="amenity" color="237,199,199" fill="1" layer="-1.00" shape="3091.110384,1970.315029 3089.448280,1975.528330 3098.020365,1978.234097 3099.702422,1973.043846 3091.110384,1970.315029"/>
    <poly id="107039262#1" type="building" color="255,230,230" fill="1" layer="-1.00" shape="3091.110384,1970.315029 3089.448280,1975.528330 3098.020365,1978.234097 3099.702422,1973.043846 3091.110384,1970.315029"/>
    <poly id="107039266" type="amenity" color="237,199,199" fill="1" layer="-1.00" shape="3094.371553,1992.890538 3098.967712,1978.527117 3098.020365,1978.234097 3089.448280,1975.528330 3084.902871,1989.838060 3094.371553,1992.890538"/>
    <poly id="107039266#1" type="building" color="255,230,230" fill="1" layer="-1.00" shape="3094.371553,1992.890538 3098.967712,1978.527117 3098.020365,1978.234097 3089.448280,1975.528330 3084.902871,1989.838060 3094.371553,1992.890538"/>
    <poly id="107039267" type="amenity" color="237,199,199" fill="1" layer="-1.00" shape="3119.283119,1945.701691 3116.487751,1954.679046 3121.984985,1956.418768 3124.788599,1947.408331 3119.283119,1945.701691"/>
    <poly id="107039267#1" type="building" color="255,230,230" fill="1" layer="-1.00" shape="3119.283119,1945.701691 3116.487751,1954.679046 3121.984985,1956.418768 3124.788599,1947.408331 3119.283119,1945.701691"/>
    <poly id="107039268" type="amenity" color="237,199,199" fill="1" layer="-1.00" shape="3101.894311,1966.537243 3116.596640,1971.319198 3113.307928,1981.546737 3104.147502,1978.606451 3098.520650,1976.806021 3099.702422,1973.043846 3101.894311,1966.537243"/>
    <poly id="107039268#1" type="building" color="255,230,230" fill="1" layer="-1.00" shape="3101.894311,1966.537243 3116.596640,1971.319198 3113.307928,1981.546737 3104.147502,1978.606451 3098.520650,1976.806021 3099.702422,1973.043846 3101.894311,1966.537243"/>
    <poly id="107039273" type="amenity" color="237,199,199" fill="1" layer="-1.00" shape="3104.552860,1950.906870 3106.865525,1951.642818 3110.139416,1952.672329 3114.394475,1954.018453 3116.487751,1954.679046 3119.283119,1945.701691 3118.819587,1944.046762 3115.476755,1943.003424 3113.909008,1944.011311 3113.019756,1943.831904 3107.375089,1941.952826 3104.552860,1950.906870"/>
    <poly id="107039273#1" type="building" color="255,230,230" fill="1" layer="-1.00" shape="3104.552860,1950.906870 3106.865525,1951.642818 3110.139416,1952.672329 3114.394475,1954.018453 3116.487751,1954.679046 3119.283119,1945.701691 3118.819587,1944.046762 3115.476755,1943.003424 3113.909008,1944.011311 3113.019756,1943.831904 3107.375089,1941.952826 3104.552860,1950.906870"/>
    <poly id="107039274" type="amenity" color="237,199,199" fill="1" layer="-1.00" shape="3101.758137,1939.184023 3098.957137,1947.415112 3099.872029,1949.432814 3104.552860,1950.906870 3107.375089,1941.952826 3107.601385,1941.137643 3101.758137,1939.184023"/>
    <poly id="107039274#1" type="building" color="255,230,230" fill="1" layer="-1.00" shape="3101.758137,1939.184023 3098.957137,1947.415112 3099.872029,1949.432814 3104.552860,1950.906870 3107.375089,1941.952826 3107.601385,1941.137643 3101.758137,1939.184023"/>
    <poly id="107039275" type="amenity" color="237,199,199" fill="1" layer="-1.00" shape="3091.110384,1970.315029 3093.209042,1963.704574 3101.894311,1966.537243 3099.702422,1973.043846 3091.110384,1970.315029"/>
    <poly id="107039275#1" type="building" color="255,230,230" fill="1" layer="-1.00" shape="3091.110384,1970.315029 3093.209042,1963.704574 3101.894311,1966.537243 3099.702422,1973.043846 3091.110384,1970.315029"/>
    <poly id="107065546" type="building" color="255,230,230" fill="1" layer="-1.00" shape="3002.680043,1790.701596 3010.522330,1793.245152 3020.572777,1761.745546 3019.450511,1758.806707 3013.236329,1757.273029 3002.680043,1790.701596"/>
    <poly id="107065562" type="building" color="255,230,230" fill="1" layer="-1.00" shape="2912.336267,1817.516348 2890.496220,1812.780142 2893.292883,1802.689225 2896.681277,1791.140369 2917.550745,1797.431138 2914.674822,1809.378524 2914.127813,1811.651066 2912.336267,1817.516348"/>
    <poly id="107065567" type="building" color="255,230,230" fill="1" layer="-1.00" shape="2983.492917,1784.386898 2992.717062,1787.307150 3003.370399,1753.704184 2994.139259,1750.783644 2983.492917,1784.386898"/>
    <poly id="107065571" type="building" color="255,230,230" fill="1" layer="-1.00" shape="3006.293035,1712.551219 3011.663868,1697.026434 3021.372069,1700.366443 3018.986420,1707.388884 3019.760032,1709.111550 3062.452883,1722.900506 3061.575871,1725.794885 3059.805802,1731.460531 3007.268297,1714.805086 3006.293035,1712.551219"/>
    <poly id="107176545" type="building" color="255,230,230" fill="1" layer="-1.00" shape="3380.613680,2838.066018 3386.658617,2819.516861 3389.099572,2820.692246 3401.191592,2827.321985 3398.961526,2831.421777 3410.444896,2837.805079 3420.281847,2825.684233 3417.917236,2823.620995 3417.962824,2822.097251 3418.731431,2821.626170 3420.467990,2821.983475 3422.121719,2823.039064 3432.972040,2832.292860 3438.290724,2837.689508 3444.444663,2844.466132 3449.586396,2851.013948 3453.539954,2856.858400 3458.215598,2864.490414 3461.644113,2871.505843 3465.861512,2879.487436 3468.727760,2886.670215 3470.695468,2892.314656 3471.048519,2896.437337 3474.145777,2896.636224 3471.966170,2926.482579 3457.450984,2925.347915 3457.436345,2938.887766 3456.804032,2944.052087 3458.979203,2944.916483 3456.748270,2956.510217 3441.544982,2952.008161 3442.165173,2946.264334 3442.795725,2941.322647 3443.096835,2936.279016 3443.232742,2932.086347 3442.999829,2926.487376 3442.187831,2919.885898 3441.836535,2915.006094 3440.457922,2909.217636 3438.496738,2902.693781 3437.020130,2897.280096 3434.779676,2892.571514 3432.627664,2887.554601 3430.083310,2883.157080 3427.607866,2878.951548 3423.869292,2873.471835 3420.706331,2869.083576 3417.721075,2865.125394 3414.806008,2861.860337 3411.528111,2858.458631 3406.322544,2853.545240 3401.323275,2849.397102 3396.911779,2846.029106 3391.568260,2842.869710 3386.806451,2840.467948 3380.613680,2838.066018"/>
    <poly id="10811256" type="building" color="255,230,230" fill="1" layer="-1.00" shape="3528.217885,2378.109632 3531.965699,2364.860332 3537.558538,2353.464723 3546.836923,2341.444728 3553.607584,2332.444664 3560.587275,2329.476924 3566.446514,2329.583290 3568.781942,2330.086513 3572.276393,2334.354172 3573.439782,2337.651098 3573.008558,2341.932449 3560.420079,2380.358335 3558.903688,2385.387901 3558.703258,2387.495764 3559.061621,2390.059726 3560.273662,2391.755079 3561.517804,2393.162170 3562.538698,2394.237621 3564.398941,2394.811365 3566.466844,2395.404357 3568.874247,2395.309092 3571.021563,2394.758260 3572.766613,2393.479062 3574.491301,2392.009770 3576.069938,2389.833255 3577.816926,2385.658977 3578.469948,2383.880580 3583.732110,2372.238259 3591.175885,2353.833004 3595.517032,2351.541706 3599.173916,2351.294831 3602.119708,2352.356406 3631.704196,2362.398164 3626.878899,2379.747612 3631.635935,2381.214030 3630.287336,2385.147749 3627.868920,2392.814509 3605.599357,2385.987097 3603.423375,2392.961819 3601.609951,2398.302692 3599.845849,2405.048531 3596.663899,2414.656409 3598.737450,2414.926714 3584.682760,2458.695850 3510.803587,2434.987502 3528.217885,2378.109632"/>
    <poly id="108251957" type="building" color="255,230,230" fill="1" layer="-1.00" shape="3961.337250,2628.504616 3972.390767,2612.679761 3964.225927,2607.059782 3953.359268,2622.903102 3961.337250,2628.504616"/>
    <poly id="108251960" type="building" color="255,230,230" fill="1" layer="-1.00" shape="3946.149107,2628.567147 3951.560423,2621.296029 3926.904733,2600.209660 3927.873830,2598.877945 3923.439125,2594.684567 3930.043238,2586.045925 3934.982575,2590.125434 3935.851010,2589.413357 3960.661983,2610.082706 3966.251504,2602.874253 3941.837262,2581.652506 3942.824589,2580.210154 3931.508405,2571.683084 3928.879522,2574.954193 3923.270009,2570.425326 3918.779767,2575.639085 3921.454245,2577.948526 3912.896535,2587.869236 3910.202581,2585.347467 3906.548651,2590.315579 3918.233093,2600.438214 3915.106925,2604.168686 3920.104304,2608.539970 3921.266280,2607.427372 3946.149107,2628.567147"/>
    <poly id="108251960#1" type="historic" color="128,255,128" fill="1" layer="-1.00" shape="3946.149107,2628.567147 3951.560423,2621.296029 3926.904733,2600.209660 3927.873830,2598.877945 3923.439125,2594.684567 3930.043238,2586.045925 3934.982575,2590.125434 3935.851010,2589.413357 3960.661983,2610.082706 3966.251504,2602.874253 3941.837262,2581.652506 3942.824589,2580.210154 3931.508405,2571.683084 3928.879522,2574.954193 3923.270009,2570.425326 3918.779767,2575.639085 3921.454245,2577.948526 3912.896535,2587.869236 3910.202581,2585.347467 3906.548651,2590.315579 3918.233093,2600.438214 3915.106925,2604.168686 3920.104304,2608.539970 3921.266280,2607.427372 3946.149107,2628.567147"/>
    <poly id="108251965" type="building" color="255,230,230" fill="1" layer="-1.00" shape="3575.841475,2837.939187 3577.539658,2841.056584 3581.043489,2842.229048 3588.284795,2844.638789 3596.945309,2847.527130 3606.723761,2850.782090 3611.252248,2848.130687 3628.722210,2791.611634 3623.086039,2789.721106 3624.514732,2786.046630 3621.110564,2784.989384 3622.806405,2779.989119 3606.213399,2774.597150 3604.519296,2779.731111 3602.256497,2778.974585 3601.008588,2782.644995 3594.676646,2780.604827 3576.085590,2837.202663 3575.841475,2837.939187"/>
    <poly id="108251965#1" type="tourism" color="207,245,201" fill="1" layer="-2.00" shape="3575.841475,2837.939187 3577.539658,2841.056584 3581.043489,2842.229048 3588.284795,2844.638789 3596.945309,2847.527130 3606.723761,2850.782090 3611.252248,2848.130687 3628.722210,2791.611634 3623.086039,2789.721106 3624.514732,2786.046630 3621.110564,2784.989384 3622.806405,2779.989119 3606.213399,2774.597150 3604.519296,2779.731111 3602.256497,2778.974585 3601.008588,2782.644995 3594.676646,2780.604827 3576.085590,2837.202663 3575.841475,2837.939187"/>
    <poly id="108251968" type="building" color="255,230,230" fill="1" layer="-1.00" shape="3974.272335,2597.620565 3984.242320,2583.568369 3995.991907,2567.002468 3987.418698,2560.987869 3965.749426,2591.741593 3974.272335,2597.620565"/>
    <poly id="108251972" type="building" color="255,230,230" fill="1" layer="-1.00" shape="3607.824965,2692.459836 3593.888099,2688.062527 3579.923467,2683.664173 3574.801740,2699.008865 3574.038800,2698.622733 3571.352999,2707.626428 3571.911345,2707.737321 3570.608826,2711.383334 3565.643636,2726.812094 3558.658046,2746.482403 3565.241043,2748.498923 3565.552794,2747.631419 3585.963648,2754.519764 3586.838871,2754.698715 3587.796513,2754.190503 3588.510598,2752.804227 3591.374578,2743.863178 3592.037870,2743.421413 3592.692616,2741.420381 3592.355401,2740.805904 3593.930705,2735.867732 3594.609160,2735.571317 3595.263907,2733.570286 3594.863833,2732.964488 3596.431337,2728.048283 3597.203436,2727.666445 3597.819161,2725.775242 3597.507126,2724.694069 3598.874735,2720.449303 3600.189015,2716.324941 3601.091178,2715.814563 3601.722515,2713.879429 3601.265243,2712.959609 3602.816713,2708.098454 3603.701949,2707.843526 3604.403532,2705.710703 3603.861289,2704.832104 3605.332543,2700.246196 3606.304489,2699.905574 3606.896371,2698.091386 3606.401405,2696.891713 3607.824965,2692.459836"/>
    <poly id="108251974" type="building" color="255,230,230" fill="1" layer="-1.00" shape="3552.824611,2862.918299 3555.187248,2855.605665 3558.577506,2845.103959 3530.580148,2836.115473 3525.356752,2852.291371 3539.454884,2856.817305 3543.189753,2858.121255 3542.568873,2859.789558 3552.824611,2862.918299"/>
    <poly id="108251975" type="building" color="255,230,230" fill="1" layer="-1.00" shape="3985.564259,2610.845879 3987.162987,2608.514376 3989.962826,2604.425977 3984.502867,2600.515330 3983.586961,2599.777955 3979.143542,2596.163219 3978.065953,2595.297027 3972.679245,2602.825195 3984.449896,2612.338926 3985.564259,2610.845879"/>
    <poly id="108251976" type="building" color="255,230,230" fill="1" layer="-1.00" shape="3908.311415,2608.468235 3912.155633,2603.607789 3902.302467,2595.861824 3902.901689,2595.105802 3900.542750,2593.254128 3899.929220,2594.020725 3897.092164,2591.782881 3893.254889,2596.643610 3908.311415,2608.468235"/>
    <poly id="108251978" type="building" color="255,230,230" fill="1" layer="-1.00" shape="3646.540617,2617.573823 3644.376344,2624.604662 3645.124844,2626.604848 3659.534344,2631.354817 3661.120084,2631.839929 3662.576680,2627.097568 3663.340319,2624.621984 3658.967605,2623.281892 3659.190495,2622.555677 3656.472016,2621.725647 3656.805917,2620.647443 3646.540617,2617.573823"/>
    <poly id="108251980" type="building" color="255,230,230" fill="1" layer="-1.00" shape="3728.819744,2657.692045 3748.314372,2595.985481 3709.692453,2583.841420 3690.198270,2645.548121 3728.819744,2657.692045"/>
    <poly id="110457622" type="amenity" color="237,199,199" fill="1" layer="-1.00" shape="3613.756514,2099.117278 3616.798711,2093.980301 3615.158627,2093.103358 3612.851323,2091.877430 3603.015584,2086.493492 3600.848424,2090.038916 3599.922716,2090.971519 3613.756514,2099.117278"/>
    <poly id="110457622#1" type="building" color="255,230,230" fill="1" layer="-1.00" shape="3613.756514,2099.117278 3616.798711,2093.980301 3615.158627,2093.103358 3612.851323,2091.877430 3603.015584,2086.493492 3600.848424,2090.038916 3599.922716,2090.971519 3613.756514,2099.117278"/>
    <poly id="110457624" type="building" color="255,230,230" fill="1" layer="-1.00" shape="3641.769523,2075.446965 3639.644987,2082.523905 3642.212892,2083.303484 3641.561964,2085.382608 3639.428363,2091.980380 3637.786524,2097.194328 3637.022952,2098.244612 3636.299331,2098.450180 3635.081888,2098.669860 3633.351155,2098.334995 3628.867847,2096.968369 3626.916927,2101.735970 3631.476102,2103.116695 3635.293912,2104.268025 3638.322232,2105.176942 3637.961868,2106.220709 3637.392042,2108.002351 3634.599563,2107.280812 3633.118216,2111.587943 3631.332451,2116.751729 3629.414850,2122.444854 3639.320864,2126.027690 3639.963425,2125.585116 3640.713500,2125.235825 3642.419479,2120.336170 3642.716121,2119.145157 3643.525318,2116.749295 3643.988908,2115.197341 3646.138540,2108.722685 3647.241330,2105.391801 3649.398775,2098.895180 3650.478151,2095.630193 3652.628667,2089.133302 3655.235397,2081.273471 3653.707692,2079.298520 3641.769523,2075.446965"/>
    <poly id="110457625" type="building" color="255,230,230" fill="1" layer="-1.00" shape="3610.794594,2115.715533 3620.570570,2119.248709 3626.916927,2101.735970 3628.867847,2096.968369 3629.597220,2095.192958 3633.984703,2096.700600 3635.978662,2090.475968 3624.597607,2086.946869 3623.535213,2089.421924 3618.661333,2087.026743 3615.158627,2093.103358 3619.940138,2095.728767 3610.794594,2115.715533"/>
    <poly id="110457628" type="amenity" color="237,199,199" fill="1" layer="-1.00" shape="3624.989243,2120.846644 3626.578611,2121.420958 3629.414850,2122.444854 3631.332451,2116.751729 3633.118216,2111.587943 3635.293912,2104.268025 3631.476102,2103.116695 3624.989243,2120.846644"/>
    <poly id="110457628#1" type="building" color="255,230,230" fill="1" layer="-1.00" shape="3624.989243,2120.846644 3626.578611,2121.420958 3629.414850,2122.444854 3631.332451,2116.751729 3633.118216,2111.587943 3635.293912,2104.268025 3631.476102,2103.116695 3624.989243,2120.846644"/>
    <poly id="110457632" type="building" color="255,230,230" fill="1" layer="-1.00" shape="3629.240409,2071.427593 3627.189291,2070.757294 3625.227049,2070.123872 3616.073961,2067.182922 3615.141782,2067.569645 3613.265697,2068.643282 3604.827191,2083.513210 3603.586642,2085.569306 3603.015584,2086.493492 3612.851323,2091.877430 3614.672465,2089.008876 3618.633532,2081.691887 3621.759010,2082.248263 3625.735096,2083.261009 3629.240409,2071.427593"/>
    <poly id="110459429" type="building" color="255,230,230" fill="1" layer="-1.00" shape="3690.493742,2140.832834 3684.598444,2138.976699 3690.689741,2120.351671 3696.388205,2122.445094 3690.493742,2140.832834"/>
    <poly id="110459430" type="building" color="255,230,230" fill="1" layer="-1.00" shape="3739.149139,2105.932621 3744.349938,2107.427612 3744.721750,2109.290596 3740.992880,2121.326779 3740.046570,2124.385383 3731.339316,2121.595266 3728.814367,2120.783914 3730.114551,2116.670158 3729.118267,2116.386240 3730.605330,2112.112760 3736.547467,2114.015320 3739.149139,2105.932621"/>
    <poly id="110459431" type="building" color="255,230,230" fill="1" layer="-1.00" shape="3734.298106,2142.233163 3731.421873,2151.830658 3729.935521,2153.242409 3720.043004,2150.205543 3722.551867,2142.007858 3722.861934,2141.184835 3724.867915,2141.942494 3725.604755,2139.443597 3734.298106,2142.233163"/>
    <poly id="110459432" type="building" color="255,230,230" fill="1" layer="-1.00" shape="3637.960623,2029.966665 3653.655808,2038.307736 3650.216860,2048.796371 3648.750216,2053.259966 3645.256320,2062.488176 3655.757705,2066.305868 3660.243572,2062.984688 3661.701341,2055.725807 3667.880977,2027.372019 3663.938543,2022.474363 3662.070403,2015.876126 3648.115496,2013.137233 3637.960623,2029.966665"/>
    <poly id="110459433" type="building" color="255,230,230" fill="1" layer="-1.00" shape="3690.204469,2106.636374 3694.537720,2108.286708 3690.689741,2120.351671 3684.598444,2138.976699 3671.183805,2134.510602 3669.105697,2130.264821 3681.573224,2091.233103 3684.455677,2089.296864 3688.491169,2090.033602 3684.038157,2104.780786 3690.204469,2106.636374"/>
    <poly id="110459436" type="amenity" color="237,199,199" fill="1" layer="-1.00" shape="3704.271815,2094.759237 3709.548490,2096.446455 3706.551784,2105.749738 3705.587290,2108.740824 3704.716902,2111.457209 3699.440242,2109.769995 3704.271815,2094.759237"/>
    <poly id="110459436#1" type="building" color="255,230,230" fill="1" layer="-1.00" shape="3704.271815,2094.759237 3709.548490,2096.446455 3706.551784,2105.749738 3705.587290,2108.740824 3704.716902,2111.457209 3699.440242,2109.769995 3704.271815,2094.759237"/>
    <poly id="110459438" type="building" color="255,230,230" fill="1" layer="-1.00" shape="3719.442842,2099.616988 3729.584303,2102.864011 3726.982645,2110.946714 3726.468299,2112.552354 3724.087280,2111.791171 3723.248976,2114.397454 3716.716784,2112.304820 3715.488556,2111.911621 3719.442842,2099.616988"/>
    <poly id="110459439" type="amenity" color="237,199,199" fill="1" layer="-1.00" shape="3740.046570,2124.385383 3734.298106,2142.233163 3725.604755,2139.443597 3725.747436,2138.992630 3706.933488,2132.956893 3712.079915,2117.000817 3728.348595,2122.213288 3728.814367,2120.783914 3740.046570,2124.385383"/>
    <poly id="110459439#1" type="building" color="255,230,230" fill="1" layer="-1.00" shape="3740.046570,2124.385383 3734.298106,2142.233163 3725.604755,2139.443597 3725.747436,2138.992630 3706.933488,2132.956893 3712.079915,2117.000817 3728.348595,2122.213288 3728.814367,2120.783914 3740.046570,2124.385383"/>
    <poly id="110459440" type="amenity" color="237,199,199" fill="1" layer="-1.00" shape="3651.898003,2178.776717 3665.147790,2183.191787 3670.287650,2165.977142 3674.970750,2167.385023 3678.650416,2155.714342 3676.735467,2155.116152 3664.265968,2151.176956 3662.563886,2150.642766 3660.027040,2152.269598 3651.898003,2178.776717"/>
    <poly id="110459440#1" type="building" color="255,230,230" fill="1" layer="-1.00" shape="3651.898003,2178.776717 3665.147790,2183.191787 3670.287650,2165.977142 3674.970750,2167.385023 3678.650416,2155.714342 3676.735467,2155.116152 3664.265968,2151.176956 3662.563886,2150.642766 3660.027040,2152.269598 3651.898003,2178.776717"/>
    <poly id="110459440#2" type="shop" color="237,199,255" fill="1" layer="-1.00" shape="3651.898003,2178.776717 3665.147790,2183.191787 3670.287650,2165.977142 3674.970750,2167.385023 3678.650416,2155.714342 3676.735467,2155.116152 3664.265968,2151.176956 3662.563886,2150.642766 3660.027040,2152.269598 3651.898003,2178.776717"/>
    <poly id="110459442" type="building" color="255,230,230" fill="1" layer="-1.00" shape="3631.498505,2040.125628 3622.133842,2054.692104 3645.256320,2062.488176 3648.750216,2053.259966 3638.037544,2050.937291 3641.209514,2044.613927 3631.498505,2040.125628"/>
    <poly id="110459443" type="building" color="255,230,230" fill="1" layer="-1.00" shape="3697.750969,2190.144886 3698.591811,2188.006378 3689.537394,2185.035730 3688.781084,2187.322300 3684.053730,2201.624486 3685.267630,2202.028253 3692.051159,2204.264300 3693.062588,2204.693562 3696.891140,2205.923311 3698.324840,2206.391348 3700.504887,2199.672925 3701.153657,2197.649399 3699.109101,2196.990458 3700.975614,2191.184005 3697.750969,2190.144886"/>
    <poly id="110459444" type="building" color="255,230,230" fill="1" layer="-1.00" shape="3714.101404,2204.279844 3720.618943,2185.593561 3714.729340,2183.771015 3708.498109,2181.801501 3705.962806,2190.321079 3704.453666,2189.827821 3702.777531,2195.029275 3704.104142,2195.571075 3702.826445,2200.710156 3714.101404,2204.279844"/>
    <poly id="110459446" type="building" color="255,230,230" fill="1" layer="-1.00" shape="3694.657498,2091.889195 3704.271815,2094.759237 3699.440242,2109.769995 3694.537720,2108.286708 3690.204469,2106.636374 3694.657498,2091.889195"/>
    <poly id="110459447" type="building" color="255,230,230" fill="1" layer="-1.00" shape="3709.548490,2096.446455 3719.442842,2099.616988 3715.488556,2111.911621 3707.748505,2109.437731 3708.713000,2106.446645 3706.551784,2105.749738 3709.548490,2096.446455"/>
    <poly id="110459448" type="building" color="255,230,230" fill="1" layer="-1.00" shape="3667.463608,2196.110065 3670.160207,2196.972637 3674.640373,2198.417131 3675.841270,2198.798117 3680.417716,2184.623651 3682.015338,2179.652962 3673.637646,2176.964900 3667.463608,2196.110065"/>
    <poly id="110459451" type="building" color="255,230,230" fill="1" layer="-1.00" shape="3675.841270,2198.798117 3679.652914,2200.105138 3680.173589,2200.292514 3680.948317,2200.556630 3682.059035,2200.934094 3683.005009,2201.260579 3684.053730,2201.624486 3688.781084,2187.322300 3685.803551,2186.359657 3684.733147,2186.017174 3680.417716,2184.623651 3675.841270,2198.798117"/>
    <poly id="110459452" type="building" color="255,230,230" fill="1" layer="-1.00" shape="3729.584303,2102.864011 3739.149139,2105.932621 3736.547467,2114.015320 3730.605330,2112.112760 3726.982645,2110.946714 3729.584303,2102.864011"/>
    <poly id="110464274" type="building" color="255,230,230" fill="1" layer="-1.00" shape="3688.574150,2158.841428 3689.431691,2159.119917 3697.131789,2161.547681 3689.537394,2185.035730 3688.781084,2187.322300 3685.803551,2186.359657 3684.733147,2186.017174 3680.417716,2184.623651 3682.015338,2179.652962 3688.574150,2158.841428"/>
    <poly id="110464275" type="building" color="255,230,230" fill="1" layer="-1.00" shape="3561.589923,2167.019898 3530.250460,2156.520368 3529.349387,2159.313525 3526.086366,2169.397091 3547.254054,2176.002890 3550.356042,2176.981446 3554.384021,2164.745265 3561.589923,2167.019898"/>
    <poly id="110464275#1" type="tourism" color="207,245,201" fill="1" layer="-2.00" shape="3561.589923,2167.019898 3530.250460,2156.520368 3529.349387,2159.313525 3526.086366,2169.397091 3547.254054,2176.002890 3550.356042,2176.981446 3554.384021,2164.745265 3561.589923,2167.019898"/>
    <poly id="110464277" type="building" color="255,230,230" fill="1" layer="-1.00" shape="3533.932812,2145.128089 3552.451624,2151.251867 3565.155730,2155.411516 3561.589923,2167.019898 3530.250460,2156.520368 3533.932812,2145.128089"/>
    <poly id="110464279" type="amenity" color="237,199,199" fill="1" layer="-1.00" shape="3542.807026,2117.670020 3545.105705,2110.577578 3568.893086,2118.421550 3566.630808,2125.292700 3550.330784,2120.168614 3542.807026,2117.670020"/>
    <poly id="110464279#1" type="building" color="255,230,230" fill="1" layer="-1.00" shape="3542.807026,2117.670020 3545.105705,2110.577578 3568.893086,2118.421550 3566.630808,2125.292700 3550.330784,2120.168614 3542.807026,2117.670020"/>
    <poly id="110464280" type="building" color="255,230,230" fill="1" layer="-1.00" shape="3677.199150,2234.272349 3676.243364,2237.219239 3679.021876,2238.118424 3678.217005,2240.581261 3675.568988,2239.720582 3671.623139,2251.803999 3683.299007,2255.600862 3686.179811,2246.771856 3687.346807,2243.042621 3684.230573,2242.074556 3684.872831,2240.039639 3688.393985,2241.134881 3690.315130,2234.996504 3693.264935,2225.646842 3681.123807,2221.842914 3677.199150,2234.272349"/>
    <poly id="110464281" type="building" color="255,230,230" fill="1" layer="-1.00" shape="3542.807026,2117.670020 3550.330784,2120.168614 3578.820353,2129.287525 3574.532434,2144.085772 3566.367050,2141.829325 3538.041434,2132.427368 3542.807026,2117.670020"/>
    <poly id="110464284" type="building" color="255,230,230" fill="1" layer="-1.00" shape="3704.498057,2235.795801 3701.161921,2245.431009 3699.851338,2249.989772 3691.879995,2247.395501 3693.143239,2243.692298 3687.992447,2241.987736 3688.393985,2241.134881 3690.315130,2234.996504 3695.356245,2236.663376 3696.528432,2233.157050 3704.498057,2235.795801"/>
    <poly id="110464287" type="building" color="255,230,230" fill="1" layer="-1.00" shape="3678.650416,2155.714342 3683.015300,2157.087524 3687.524116,2158.510876 3688.574150,2158.841428 3682.015338,2179.652962 3673.637646,2176.964900 3676.590004,2168.083009 3674.970750,2167.385023 3678.650416,2155.714342"/>
    <poly id="110464287#1" type="shop" color="237,199,255" fill="1" layer="-1.00" shape="3678.650416,2155.714342 3683.015300,2157.087524 3687.524116,2158.510876 3688.574150,2158.841428 3682.015338,2179.652962 3673.637646,2176.964900 3676.590004,2168.083009 3674.970750,2167.385023 3678.650416,2155.714342"/>
    <poly id="110464290" type="building" color="255,230,230" fill="1" layer="-1.00" shape="3706.166830,2230.427031 3704.498057,2235.795801 3696.528432,2233.157050 3695.604579,2232.798020 3697.575081,2227.530123 3706.166830,2230.427031"/>
    <poly id="110464292" type="building" color="255,230,230" fill="1" layer="-1.00" shape="3707.933572,2225.217984 3695.566598,2221.149082 3690.341652,2219.385945 3692.276663,2213.426274 3709.936232,2219.305503 3707.933572,2225.217984"/>
    <poly id="110464295" type="building" color="255,230,230" fill="1" layer="-1.00" shape="3526.086366,2169.397091 3547.254054,2176.002890 3546.247165,2179.192779 3549.356522,2180.160487 3550.356042,2176.981446 3556.121707,2178.776687 3552.513062,2189.525989 3522.709310,2179.910480 3526.086366,2169.397091"/>