<?xml version="1.0" encoding="UTF-8"?>
<!-- generated on 2019-05-31 00:00:53.912152 by $Id$
  options: <doubleminus>net-file=manhattanLarge.net.xml <doubleminus>additional-files=additional.type.xml <doubleminus>output-trip-file=manhattanLargePedestrian.trips.xml <doubleminus>route-file=manhattanLargePedestrian.rou.xml <doubleminus>begin=0 <doubleminus>end=2000 <doubleminus>verbose <doubleminus>pedestrians
-->
<routes xmlns:xsi="http://www.w3.org/2001/XMLSchema-instance" xsi:noNamespaceSchemaLocation="http://sumo.dlr.de/xsd/routes_file.xsd">
    <person id="0" depart="0.00">
        <walk from="5673323#1" to="382740985#7"/>
    </person>
    <person id="1" depart="1.00">
        <walk from="226041030#2" to="600848485"/>
    </person>
    <person id="2" depart="2.00">
        <walk from="458166897#2" to="46432183#1"/>
    </person>
    <person id="3" depart="3.00">
        <walk from="381477004#0" to="464543615#1"/>
    </person>
    <person id="4" depart="4.00">
        <walk from="46240204#5" to="265356028#7"/>
    </person>
    <person id="5" depart="5.00">
        <walk from="533859005" to="569345547#2"/>
    </person>
    <person id="6" depart="6.00">
        <walk from="5672290#1" to="381565180#1"/>
    </person>
    <person id="7" depart="7.00">
        <walk from="511755381" to="362786543#1"/>
    </person>
    <person id="8" depart="8.00">
        <walk from="473560297" to="226041031#7"/>
    </person>
    <person id="9" depart="9.00">
        <walk from="-164632299" to="5670124#0"/>
    </person>
    <person id="10" depart="10.00">
        <walk from="226041007#1" to="46538371#5"/>
    </person>
    <person id="11" depart="11.00">
        <walk from="162776008#1" to="544819870"/>
    </person>
    <person id="12" depart="12.00">
        <walk from="550727393" to="226041011#1"/>
    </person>
    <person id="13" depart="13.00">
        <walk from="496983396#1" to="420509471#0"/>
    </person>
    <person id="14" depart="14.00">
        <walk from="-167922076" to="46522002#2"/>
    </person>
    <person id="15" depart="15.00">
        <walk from="-381477008#1" to="384649120#0"/>
    </person>
    <person id="16" depart="16.00">
        <walk from="330748490#0" to="513706054"/>
    </person>
    <person id="17" depart="17.00">
        <walk from="379373376" to="420907907"/>
    </person>
    <person id="18" depart="18.00">
        <walk from="460585328#0" to="420902584#1"/>
    </person>
    <person id="19" depart="19.00">
        <walk from="379977073" to="330177550#5"/>
    </person>
    <person id="20" depart="20.00">
        <walk from="226041005#2" to="448686048"/>
    </person>
    <person id="21" depart="21.00">
        <walk from="458180183" to="436899178#1"/>
    </person>
    <person id="22" depart="22.00">
        <walk from="68668519" to="542256188#1"/>
    </person>
    <person id="23" depart="23.00">
        <walk from="46240204#22" to="458166896#0"/>
    </person>
    <person id="24" depart="24.00">
        <walk from="46469727#5" to="226041025#2"/>
    </person>
    <person id="25" depart="25.00">
        <walk from="513706139" to="-570154519"/>
    </person>
    <person id="26" depart="26.00">
        <walk from="195743342#2" to="459890316"/>
    </person>
    <person id="27" depart="27.00">
        <walk from="496989355#0" to="265356028#9"/>
    </person>
    <person id="28" depart="28.00">
        <walk from="420892270#0" to="570153860"/>
    </person>
    <person id="29" depart="29.00">
        <walk from="541448653" to="-527611226"/>
    </person>
    <person id="30" depart="30.00">
        <walk from="35027232#3" to="570154521#0"/>
    </person>
    <person id="31" depart="31.00">
        <walk from="511809813" to="518451327#1"/>
    </person>
    <person id="32" depart="32.00">
        <walk from="46492019" to="226041006#0"/>
    </person>
    <person id="33" depart="33.00">
        <walk from="458180184#1" to="5673561#4"/>
    </person>
    <person id="34" depart="34.00">
        <walk from="-570155061#0" to="473560427"/>
    </person>
    <person id="35" depart="35.00">
        <walk from="46522008#6" to="483236728#6"/>
    </person>
    <person id="36" depart="36.00">
        <walk from="218330656#2" to="381565180#2"/>
    </person>
    <person id="37" depart="37.00">
        <walk from="384649120#4" to="420509471#1"/>
    </person>
    <person id="38" depart="38.00">
        <walk from="543530720" to="380991638"/>
    </person>
    <person id="39" depart="39.00">
        <walk from="36806683" to="68674961#2"/>
    </person>
    <person id="40" depart="40.00">
        <walk from="5671317" to="570148039#0"/>
    </person>
    <person id="41" depart="41.00">
        <walk from="499172074#11" to="460606348#2"/>
    </person>
    <person id="42" depart="42.00">
        <walk from="-420894361#5" to="458180184#0"/>
    </person>
    <person id="43" depart="43.00">
        <walk from="-5670139" to="540356239#0"/>
    </person>
    <person id="44" depart="44.00">
        <walk from="544819869#0" to="-394715087"/>
    </person>
    <person id="45" depart="45.00">
        <walk from="464902521" to="46469722"/>
    </person>
    <person id="46" depart="46.00">
        <walk from="436899193#0" to="-459887200"/>
    </person>
    <person id="47" depart="47.00">
        <walk from="5670124#0" to="458180183"/>
    </person>
    <person id="48" depart="48.00">
        <walk from="513706071" to="542257008#1"/>
    </person>
    <person id="49" depart="49.00">
        <walk from="420904659" to="394715085"/>
    </person>
    <person id="50" depart="50.00">
        <walk from="464516471#2" to="68674962#16"/>
    </person>
    <person id="51" depart="51.00">
        <walk from="541448654" to="436899179#1"/>
    </person>
    <person id="52" depart="52.00">
        <walk from="420512231#2" to="420598330#1"/>
    </person>
    <person id="53" depart="53.00">
        <walk from="46482592#1" to="505317778"/>
    </person>
    <person id="54" depart="54.00">
        <walk from="68674962#17" to="68674962#19"/>
    </person>
    <person id="55" depart="55.00">
        <walk from="420890028" to="167922072#0"/>
    </person>
    <person id="56" depart="56.00">
        <walk from="5672118#5" to="541448655"/>
    </person>
    <person id="57" depart="57.00">
        <walk from="109269756#1" to="458448234"/>
    </person>
    <person id="58" depart="58.00">
        <walk from="380992604" to="36806905"/>
    </person>
    <person id="59" depart="59.00">
        <walk from="541350711#1" to="542255948#4"/>
    </person>
    <person id="60" depart="60.00">
        <walk from="460585328#3" to="436899182#0"/>
    </person>
    <person id="61" depart="61.00">
        <walk from="5673626#2" to="5670719#7"/>
    </person>
    <person id="62" depart="62.00">
        <walk from="542256188#1" to="332054904#0"/>
    </person>
    <person id="63" depart="63.00">
        <walk from="46520833#2" to="113722985"/>
    </person>
    <person id="64" depart="64.00">
        <walk from="5672951#4" to="46240204#22"/>
    </person>
    <person id="65" depart="65.00">
        <walk from="438385431#2" to="459148465"/>
    </person>
    <person id="66" depart="66.00">
        <walk from="385107993" to="384649120#2"/>
    </person>
    <person id="67" depart="67.00">
        <walk from="-570156529" to="569345515#2"/>
    </person>
    <person id="68" depart="68.00">
        <walk from="499172074#19" to="46538371#5"/>
    </person>
    <person id="69" depart="69.00">
        <walk from="5673497" to="36185650#1"/>
    </person>
    <person id="70" depart="70.00">
        <walk from="489019752#3" to="550727575"/>
    </person>
    <person id="71" depart="71.00">
        <walk from="569345542#1" to="458166897#6"/>
    </person>
    <person id="72" depart="72.00">
        <walk from="46538375#8" to="570150035#0"/>
    </person>
    <person id="73" depart="73.00">
        <walk from="420356168" to="458180193#2"/>
    </person>
    <person id="74" depart="74.00">
        <walk from="541350711#0" to="511699183#2"/>
    </person>
    <person id="75" depart="75.00">
        <walk from="5669669#5" to="542256188#4"/>
    </person>
    <person id="76" depart="76.00">
        <walk from="527623202#1" to="196116976#8"/>
    </person>
    <person id="77" depart="77.00">
        <walk from="195743336#1" to="483236728#4"/>
    </person>
    <person id="78" depart="78.00">
        <walk from="497165753#3" to="46469726#0"/>
    </person>
    <person id="79" depart="79.00">
        <walk from="5671440#0" to="-36271338#0"/>
    </person>
    <person id="80" depart="80.00">
        <walk from="-384649121#1" to="-46520921#2"/>
    </person>
    <person id="81" depart="81.00">
        <walk from="420901686#1" to="497165756#4"/>
    </person>
    <person id="82" depart="82.00">
        <walk from="473560465#2" to="436899178#1"/>
    </person>
    <person id="83" depart="83.00">
        <walk from="5671317" to="513706139"/>
    </person>
    <person id="84" depart="84.00">
        <walk from="527623200" to="330177547#7"/>
    </person>
    <person id="85" depart="85.00">
        <walk from="46538371#2" to="46482537#1"/>
    </person>
    <person id="86" depart="86.00">
        <walk from="-511699183#2" to="-381477004#0"/>
    </person>
    <person id="87" depart="87.00">
        <walk from="570150702#1" to="46492638"/>
    </person>
    <person id="88" depart="88.00">
        <walk from="511809819" to="473560394#3"/>
    </person>
    <person id="89" depart="89.00">
        <walk from="196116976#1" to="566921851"/>
    </person>
    <person id="90" depart="90.00">
        <walk from="379961830" to="497258108#0"/>
    </person>
    <person id="91" depart="91.00">
        <walk from="-384826723#4" to="-458448235"/>
    </person>
    <person id="92" depart="92.00">
        <walk from="379865570" to="446193620"/>
    </person>
    <person id="93" depart="93.00">
        <walk from="570149707#1" to="458166897#19"/>
    </person>
    <person id="94" depart="94.00">
        <walk from="-570154521#0" to="573476360"/>
    </person>
    <person id="95" depart="95.00">
        <walk from="226041002#0" to="511699182"/>
    </person>
    <person id="96" depart="96.00">
        <walk from="380991635" to="5672290#1"/>
    </person>
    <person id="97" depart="97.00">
        <walk from="385001975#0" to="-570155210"/>
    </person>
    <person id="98" depart="98.00">
        <walk from="5669664#0" to="380992602#2"/>
    </person>
    <person id="99" depart="99.00">
        <walk from="5671370" to="-550727574"/>
    </person>
    <person id="100" depart="100.00">
        <walk from="194753585" to="-496986969#1"/>
    </person>
    <person id="101" depart="101.00">
        <walk from="573228989" to="194926851#4"/>
    </person>
    <person id="102" depart="102.00">
        <walk from="226041023" to="46482609"/>
    </person>
    <person id="103" depart="103.00">
        <walk from="496986969#0" to="458166896#16"/>
    </person>
    <person id="104" depart="104.00">
        <walk from="511699179" to="447001272#1"/>
    </person>
    <person id="105" depart="105.00">
        <walk from="420902883#2" to="5673063#6"/>
    </person>
    <person id="106" depart="106.00">
        <walk from="496986803#5" to="542259076#0"/>
    </person>
    <person id="107" depart="107.00">
        <walk from="436899182#1" to="541448661"/>
    </person>
    <person id="108" depart="108.00">
        <walk from="499172074#1" to="46522001#3"/>
    </person>
    <person id="109" depart="109.00">
        <walk from="113722989#5" to="5672464"/>
    </person>
    <person id="110" depart="110.00">
        <walk from="226041031#1" to="464515259#4"/>
    </person>
    <person id="111" depart="111.00">
        <walk from="458166897#10" to="46538371#7"/>
    </person>
    <person id="112" depart="112.00">
        <walk from="5669664#0" to="480803092#0"/>
    </person>
    <person id="113" depart="113.00">
        <walk from="420901682#1" to="500717384"/>
    </person>
    <person id="114" depart="114.00">
        <walk from="46522002#2" to="420902878#1"/>
    </person>
    <person id="115" depart="115.00">
        <walk from="22916381" to="511699183#2"/>
    </person>
    <person id="116" depart="116.00">
        <walk from="511699184#1" to="541448645"/>
    </person>
    <person id="117" depart="117.00">
        <walk from="382532147#0" to="194926851#6"/>
    </person>
    <person id="118" depart="118.00">
        <walk from="46435602#4" to="46240204#7"/>
    </person>
    <person id="119" depart="119.00">
        <walk from="380992604" to="-458448244#1"/>
    </person>
    <person id="120" depart="120.00">
        <walk from="458177128#0" to="388760885"/>
    </person>
    <person id="121" depart="121.00">
        <walk from="-384649121#1" to="-477823038"/>
    </person>
    <person id="122" depart="122.00">
        <walk from="436899179#0" to="46482616"/>
    </person>
    <person id="123" depart="123.00">
        <walk from="436899185" to="570149707#1"/>
    </person>
    <person id="124" depart="124.00">
        <walk from="602327728" to="46521993#1"/>
    </person>
    <person id="125" depart="125.00">
        <walk from="226041021#1" to="68674962#22"/>
    </person>
    <person id="126" depart="126.00">
        <walk from="46482537#0" to="569345542#0"/>
    </person>
    <person id="127" depart="127.00">
        <walk from="386972970" to="265356028#13"/>
    </person>
    <person id="128" depart="128.00">
        <walk from="46443656#9" to="196116976#5"/>
    </person>
    <person id="129" depart="129.00">
        <walk from="226041005#1" to="473560238#1"/>
    </person>
    <person id="130" depart="130.00">
        <walk from="-570149706#1" to="-570150702#1"/>
    </person>
    <person id="131" depart="131.00">
        <walk from="5670719#10" to="477823038"/>
    </person>
    <person id="132" depart="132.00">
        <walk from="46538375#2" to="458180184#2"/>
    </person>
    <person id="133" depart="133.00">
        <walk from="330177547#8" to="458180184#1"/>
    </person>
    <person id="134" depart="134.00">
        <walk from="569345515#4" to="528748997#1"/>
    </person>
    <person id="135" depart="135.00">
        <walk from="380991634#1" to="36806678"/>
    </person>
    <person id="136" depart="136.00">
        <walk from="-458448238" to="46435596#4"/>
    </person>
    <person id="137" depart="137.00">
        <walk from="511699183#2" to="44165033#0"/>
    </person>
    <person id="138" depart="138.00">
        <walk from="375673048#2" to="226041020"/>
    </person>
    <person id="139" depart="139.00">
        <walk from="473560435" to="496995905"/>
    </person>
    <person id="140" depart="140.00">
        <walk from="5669227" to="-570156303"/>
    </person>
    <person id="141" depart="141.00">
        <walk from="226041027#0" to="380992602#0"/>
    </person>
    <person id="142" depart="142.00">
        <walk from="-570146938" to="330748492#0"/>
    </person>
    <person id="143" depart="143.00">
        <walk from="420901679" to="384649120#3"/>
    </person>
    <person id="144" depart="144.00">
        <walk from="46521465" to="194920158#9"/>
    </person>
    <person id="145" depart="145.00">
        <walk from="46443656#7" to="194572581"/>
    </person>
    <person id="146" depart="146.00">
        <walk from="511809753" to="587256611#0"/>
    </person>
    <person id="147" depart="147.00">
        <walk from="113722989#0" to="569345545"/>
    </person>
    <person id="148" depart="148.00">
        <walk from="420906747" to="597821266#1"/>
    </person>
    <person id="149" depart="149.00">
        <walk from="-5670253#1" to="569345540#4"/>
    </person>
    <person id="150" depart="150.00">
        <walk from="296677061" to="226041008#1"/>
    </person>
    <person id="151" depart="151.00">
        <walk from="420901682#1" to="464515614#0"/>
    </person>
    <person id="152" depart="152.00">
        <walk from="511809774" to="198595461#4"/>
    </person>
    <person id="153" depart="153.00">
        <walk from="-5671440#0" to="-570154519"/>
    </person>
    <person id="154" depart="154.00">
        <walk from="542258337#0" to="226041030#1"/>
    </person>
    <person id="155" depart="155.00">
        <walk from="513706094" to="464902520"/>
    </person>
    <person id="156" depart="156.00">
        <walk from="-570154987" to="375673048#3"/>
    </person>
    <person id="157" depart="157.00">
        <walk from="-458448242#0" to="5671349#3"/>
    </person>
    <person id="158" depart="158.00">
        <walk from="289360194#0" to="569345546"/>
    </person>
    <person id="159" depart="159.00">
        <walk from="420356171#2" to="113722982#1"/>
    </person>
    <person id="160" depart="160.00">
        <walk from="464516471#0" to="195743182#3"/>
    </person>
    <person id="161" depart="161.00">
        <walk from="-380991638" to="368938760#1"/>
    </person>
    <person id="162" depart="162.00">
        <walk from="46481747#2" to="226041029#0"/>
    </person>
    <person id="163" depart="163.00">
        <walk from="587256612#0" to="46482604"/>
    </person>
    <person id="164" depart="164.00">
        <walk from="194926854#1" to="525729008#0"/>
    </person>
    <person id="165" depart="165.00">
        <walk from="46469729#1" to="483236728#7"/>
    </person>
    <person id="166" depart="166.00">
        <walk from="468011140#0" to="464516471#10"/>
    </person>
    <person id="167" depart="167.00">
        <walk from="569345547#0" to="430387231#1"/>
    </person>
    <person id="168" depart="168.00">
        <walk from="46240204#33" to="457948932#2"/>
    </person>
    <person id="169" depart="169.00">
        <walk from="46481747#2" to="5670253#0"/>
    </person>
    <person id="170" depart="170.00">
        <walk from="385446618#1" to="167922073#1"/>
    </person>
    <person id="171" depart="171.00">
        <walk from="46240204#3" to="511809759"/>
    </person>
    <person id="172" depart="172.00">
        <walk from="420901677#0" to="46334594#0"/>
    </person>
    <person id="173" depart="173.00">
        <walk from="-5670874#1" to="46469727#0"/>
    </person>
    <person id="174" depart="174.00">
        <walk from="436899203" to="458180193#1"/>
    </person>
    <person id="175" depart="175.00">
        <walk from="-527611412" to="385001973#0"/>
    </person>
    <person id="176" depart="176.00">
        <walk from="473560288#0" to="436899178#0"/>
    </person>
    <person id="177" depart="177.00">
        <walk from="36185650#1" to="113944509"/>
    </person>
    <person id="178" depart="178.00">
        <walk from="113944511#0" to="505317789#1"/>
    </person>
    <person id="179" depart="179.00">
        <walk from="473560465#1" to="511809792"/>
    </person>
    <person id="180" depart="180.00">
        <walk from="458180199#0" to="569345540#1"/>
    </person>
    <person id="181" depart="181.00">
        <walk from="566921851" to="527611226"/>
    </person>
    <person id="182" depart="182.00">
        <walk from="381565180#0" to="452617301"/>
    </person>
    <person id="183" depart="183.00">
        <walk from="420901680#1" to="452617300"/>
    </person>
    <person id="184" depart="184.00">
        <walk from="-583020573#1" to="5670719#9"/>
    </person>
    <person id="185" depart="185.00">
        <walk from="473560441#1" to="464516471#10"/>
    </person>
    <person id="186" depart="186.00">
        <walk from="36806681" to="496986803#5"/>
    </person>
    <person id="187" depart="187.00">
        <walk from="570159284" to="542256188#3"/>
    </person>
    <person id="188" depart="188.00">
        <walk from="5671629#1" to="525729008#0"/>
    </person>
    <person id="189" depart="189.00">
        <walk from="458166897#7" to="464516471#6"/>
    </person>
    <person id="190" depart="190.00">
        <walk from="541448646" to="46240204#27"/>
    </person>
    <person id="191" depart="191.00">
        <walk from="496983396#1" to="420908137#0"/>
    </person>
    <person id="192" depart="192.00">
        <walk from="46240204#12" to="569345538#2"/>
    </person>
    <person id="193" depart="193.00">
        <walk from="265356028#2" to="5673497"/>
    </person>
    <person id="194" depart="194.00">
        <walk from="68674962#37" to="46492641"/>
    </person>
    <person id="195" depart="195.00">
        <walk from="167922071" to="375673048#1"/>
    </person>
    <person id="196" depart="196.00">
        <walk from="68674962#14" to="-46520921#2"/>
    </person>
    <person id="197" depart="197.00">
        <walk from="587256609" to="438384693#1"/>
    </person>
    <person id="198" depart="198.00">
        <walk from="5671574#1" to="226041031#8"/>
    </person>
    <person id="199" depart="199.00">
        <walk from="46334593" to="458448244#0"/>
    </person>
    <person id="200" depart="200.00">
        <walk from="588157337#0" to="455125049#3"/>
    </person>
    <person id="201" depart="201.00">
        <walk from="421852619#1" to="525729010#2"/>
    </person>
    <person id="202" depart="202.00">
        <walk from="113722989#4" to="194926851#2"/>
    </person>
    <person id="203" depart="203.00">
        <walk from="36807208" to="439768851"/>
    </person>
    <person id="204" depart="204.00">
        <walk from="5670197#1" to="569345539"/>
    </person>
    <person id="205" depart="205.00">
        <walk from="602327728" to="-384649121#0"/>
    </person>
    <person id="206" depart="206.00">
        <walk from="113722984#3" to="195743182#4"/>
    </person>
    <person id="207" depart="207.00">
        <walk from="483360105" to="384826723#0"/>
    </person>
    <person id="208" depart="208.00">
        <walk from="36806906#1" to="218330656#3"/>
    </person>
    <person id="209" depart="209.00">
        <walk from="541448661" to="68674962#3"/>
    </person>
    <person id="210" depart="210.00">
        <walk from="458452177#2" to="195743342#2"/>
    </person>
    <person id="211" depart="211.00">
        <walk from="420902874" to="473560465#1"/>
    </person>
    <person id="212" depart="212.00">
        <walk from="420901917" to="194920158#10"/>
    </person>
    <person id="213" depart="213.00">
        <walk from="511809792" to="542257008#0"/>
    </person>
    <person id="214" depart="214.00">
        <walk from="308322447#2" to="226041033"/>
    </person>
    <person id="215" depart="215.00">
        <walk from="569345538#0" to="-36271338#0"/>
    </person>
    <person id="216" depart="216.00">
        <walk from="458448242#1" to="422298615#4"/>
    </person>
    <person id="217" depart="217.00">
        <walk from="332054904#8" to="385107993"/>
    </person>
    <person id="218" depart="218.00">
        <walk from="436899200#1" to="-602327727"/>
    </person>
    <person id="219" depart="219.00">
        <walk from="420901920#0" to="46443656#1"/>
    </person>
    <person id="220" depart="220.00">
        <walk from="196116976#5" to="511699179"/>
    </person>
    <person id="221" depart="221.00">
        <walk from="382740985#4" to="569345540#4"/>
    </person>
    <person id="222" depart="222.00">
        <walk from="468011134#2" to="379961828"/>
    </person>
    <person id="223" depart="223.00">
        <walk from="457948935" to="569345543"/>
    </person>
    <person id="224" depart="224.00">
        <walk from="388734718" to="513706090"/>
    </person>
    <person id="225" depart="225.00">
        <walk from="164632300" to="46490538#0"/>
    </person>
    <person id="226" depart="226.00">
        <walk from="46443656#12" to="46201643"/>
    </person>
    <person id="227" depart="227.00">
        <walk from="468011139#1" to="455125049#3"/>
    </person>
    <person id="228" depart="228.00">
        <walk from="163630201" to="226041032#1"/>
    </person>
    <person id="229" depart="229.00">
        <walk from="499172074#18" to="458180192#0"/>
    </person>
    <person id="230" depart="230.00">
        <walk from="226041027#0" to="-458448236"/>
    </person>
    <person id="231" depart="231.00">
        <walk from="483704512#4" to="-167922072#0"/>
    </person>
    <person id="232" depart="232.00">
        <walk from="438384693#0" to="473560450#1"/>
    </person>
    <person id="233" depart="233.00">
        <walk from="513706128" to="196116976#7"/>
    </person>
    <person id="234" depart="234.00">
        <walk from="397795464#1" to="46520921#1"/>
    </person>
    <person id="235" depart="235.00">
        <walk from="109269756#3" to="452322756#1"/>
    </person>
    <person id="236" depart="236.00">
        <walk from="5671276#11" to="511699183#1"/>
    </person>
    <person id="237" depart="237.00">
        <walk from="597821266#6" to="554083353#1"/>
    </person>
    <person id="238" depart="238.00">
        <walk from="480803092#1" to="161157976#0"/>
    </person>
    <person id="239" depart="239.00">
        <walk from="511809763" to="458448238"/>
    </person>
    <person id="240" depart="240.00">
        <walk from="569345542#0" to="458448236"/>
    </person>
    <person id="241" depart="241.00">
        <walk from="578280395#0" to="458166897#9"/>
    </person>
    <person id="242" depart="242.00">
        <walk from="436899179#0" to="330748490#1"/>
    </person>
    <person id="243" depart="243.00">
        <walk from="-5670139" to="513706112"/>
    </person>
    <person id="244" depart="244.00">
        <walk from="459175383#1" to="587256609"/>
    </person>
    <person id="245" depart="245.00">
        <walk from="458166897#8" to="436899190#0"/>
    </person>
    <person id="246" depart="246.00">
        <walk from="497165753#0" to="452322756#2"/>
    </person>
    <person id="247" depart="247.00">
        <walk from="587038081#0" to="-477873433"/>
    </person>
    <person id="248" depart="248.00">
        <walk from="483236728#5" to="-36806903"/>
    </person>
    <person id="249" depart="249.00">
        <walk from="-496995905" to="459887831"/>
    </person>
    <person id="250" depart="250.00">
        <walk from="226041022#3" to="68674962#3"/>
    </person>
    <person id="251" depart="251.00">
        <walk from="226041005#2" to="-420894361#2"/>
    </person>
    <person id="252" depart="252.00">
        <walk from="46538375#16" to="194926854#0"/>
    </person>
    <person id="253" depart="253.00">
        <walk from="265356028#2" to="464902520"/>
    </person>
    <person id="254" depart="254.00">
        <walk from="420901683#0" to="511809753"/>
    </person>
    <person id="255" depart="255.00">
        <walk from="570155061#0" to="511809757"/>
    </person>
    <person id="256" depart="256.00">
        <walk from="458180188#1" to="570153854#1"/>
    </person>
    <person id="257" depart="257.00">
        <walk from="497165756#9" to="459175380#2"/>
    </person>
    <person id="258" depart="258.00">
        <walk from="513706091" to="459175381#1"/>
    </person>
    <person id="259" depart="259.00">
        <walk from="436899186#0" to="496990647#2"/>
    </person>
    <person id="260" depart="260.00">
        <walk from="569345546" to="587256611#1"/>
    </person>
    <person id="261" depart="261.00">
        <walk from="5671160#1" to="460585328#1"/>
    </person>
    <person id="262" depart="262.00">
        <walk from="46491363" to="473560465#2"/>
    </person>
    <person id="263" depart="263.00">
        <walk from="385001974#0" to="46482602#5"/>
    </person>
    <person id="264" depart="264.00">
        <walk from="-420356168" to="68674961#3"/>
    </person>
    <person id="265" depart="265.00">
        <walk from="496986803#3" to="483704512#3"/>
    </person>
    <person id="266" depart="266.00">
        <walk from="378363533#1" to="-541953859"/>
    </person>
    <person id="267" depart="267.00">
        <walk from="-458448233" to="-458448243#0"/>
    </person>
    <person id="268" depart="268.00">
        <walk from="-550727393" to="-5671370"/>
    </person>
    <person id="269" depart="269.00">
        <walk from="458180186#0" to="226041004#2"/>
    </person>
    <person id="270" depart="270.00">
        <walk from="385001974#2" to="458448240#1"/>
    </person>
    <person id="271" depart="271.00">
        <walk from="398380570#1" to="541350711#1"/>
    </person>
    <person id="272" depart="272.00">
        <walk from="265356028#4" to="379865570"/>
    </person>
    <person id="273" depart="273.00">
        <walk from="226041022#4" to="587256612#0"/>
    </person>
    <person id="274" depart="274.00">
        <walk from="167922073#1" to="511809811"/>
    </person>
    <person id="275" depart="275.00">
        <walk from="46443656#8" to="-438384692#1"/>
    </person>
    <person id="276" depart="276.00">
        <walk from="68674962#23" to="464515891"/>
    </person>
    <person id="277" depart="277.00">
        <walk from="458452177#1" to="68674962#36"/>
    </person>
    <person id="278" depart="278.00">
        <walk from="464515259#0" to="511809758"/>
    </person>
    <person id="279" depart="279.00">
        <walk from="68674962#24" to="46481747#2"/>
    </person>
    <person id="280" depart="280.00">
        <walk from="196117039" to="390310751#0"/>
    </person>
    <person id="281" depart="281.00">
        <walk from="46443656#7" to="167922070"/>
    </person>
    <person id="282" depart="282.00">
        <walk from="-167922072#1" to="542258337#1"/>
    </person>
    <person id="283" depart="283.00">
        <walk from="420901924" to="5673480"/>
    </person>
    <person id="284" depart="284.00">
        <walk from="587256608#1" to="458180188#1"/>
    </person>
    <person id="285" depart="285.00">
        <walk from="398376158#1" to="-497258109"/>
    </person>
    <person id="286" depart="286.00">
        <walk from="388760889" to="473560434"/>
    </person>
    <person id="287" depart="287.00">
        <walk from="500793245#2" to="-420894361#2"/>
    </person>
    <person id="288" depart="288.00">
        <walk from="602327728" to="5673515#0"/>
    </person>
    <person id="289" depart="289.00">