<?xml version="1.0" encoding="UTF-8"?>

<!-- generated on Fri May 31 00:00:36 2019 by Eclipse SUMO polyconvert Version 1.1.0
<configuration xmlns:xsi="http://www.w3.org/2001/XMLSchema-instance" xsi:noNamespaceSchemaLocation="http://sumo.dlr.de/xsd/polyconvertConfiguration.xsd">

    <input>
        <net-file value="manhattanLarge.net.xml"/>
        <osm-files value="manhattanLarge.osm.xml"/>
    </input>

    <output>
        <output-file value="manhattanLarge.poly.xml"/>
    </output>

    <processing>
        <poi-layer-offset value="5"/>
    </processing>

</configuration>
-->

<additional xmlns:xsi="http://www.w3.org/2001/XMLSchema-instance" xsi:noNamespaceSchemaLocation="http://sumo.dlr.de/xsd/additional_file.xsd">
    <location netOffset="-583560.94,-4510409.98" convBoundary="0.00,-3108.05,5352.33,6725.86" origBoundary="-74.010196,40.712299,-73.939616,40.814522" projParameter="+proj=utm +zone=18 +ellps=WGS84 +datum=WGS84 +units=m +no_defs"/>

    <poly id="108159980" type="amenity" color="237,199,199" fill="1" layer="-1.00" shape="1228.850184,747.104360 1252.604582,791.862614 1164.032379,839.132661 1191.727912,890.708113 1406.404944,775.461472 1338.885820,651.342402 1287.983480,678.981091 1303.179918,707.176995 1228.850184,747.104360"/>
    <poly id="108160358" type="amenity" color="237,199,199" fill="1" layer="-1.00" shape="1624.746052,1760.845681 1407.718169,1877.079940 1417.389903,1895.009918 1421.440467,1902.517066 1426.226869,1911.376025 1431.509153,1921.162160 1436.766608,1930.903605 1550.770794,1869.851625 1567.460478,1878.725337 1568.245291,1880.222051 1571.419070,1886.142695 1580.824878,1903.670162 1582.551811,1906.931857 1576.231818,1910.323100 1576.595699,1910.982313 1578.711580,1914.925711 1580.827460,1918.869110 1583.993280,1924.745260 1587.158968,1930.632512 1590.332964,1936.530964 1690.423129,1883.026094 1653.793426,1814.670205 1624.746052,1760.845681"/>
    <poly id="108160358#1" type="building" color="255,230,230" fill="1" layer="-1.00" shape="1624.746052,1760.845681 1407.718169,1877.079940 1417.389903,1895.009918 1421.440467,1902.517066 1426.226869,1911.376025 1431.509153,1921.162160 1436.766608,1930.903605 1550.770794,1869.851625 1567.460478,1878.725337 1568.245291,1880.222051 1571.419070,1886.142695 1580.824878,1903.670162 1582.551811,1906.931857 1576.231818,1910.323100 1576.595699,1910.982313 1578.711580,1914.925711 1580.827460,1918.869110 1583.993280,1924.745260 1587.158968,1930.632512 1590.332964,1936.530964 1690.423129,1883.026094 1653.793426,1814.670205 1624.746052,1760.845681"/>
    <poly id="109269750" type="tourism" color="207,245,201" fill="1" layer="-2.00" shape="3075.495810,2630.192419 3036.800957,2651.056202 3100.235336,2768.172368 3104.282960,2770.695547 3110.369853,2772.798504 3117.389329,2773.113813 3121.476062,2771.574023 3127.854121,2768.273592 3134.473456,2763.832455 3137.013470,2759.576711 3138.191890,2755.538175 3138.228930,2752.374458 3136.740293,2744.696454 3075.495810,2630.192419"/>
    <poly id="109284794" type="building" color="255,230,230" fill="1" layer="-1.00" shape="2408.264217,2321.334698 2379.245315,2267.884777 2384.191173,2265.066688 2388.187911,2272.018664 2389.351630,2271.399341 2395.365915,2268.171773 2396.529636,2267.552451 2403.138900,2263.976522 2404.302623,2263.357202 2410.919949,2259.814680 2412.092242,2259.184358 2418.692694,2255.641647 2419.856419,2255.022329 2426.448567,2251.468427 2427.612294,2250.849110 2434.229642,2247.306609 2435.393499,2246.676192 2441.994103,2243.122401 2443.157832,2242.503087 2449.758443,2238.949303 2450.922173,2238.329989 2457.531233,2234.776310 2458.694964,2234.156998 2465.303902,2230.614426 2466.476076,2229.995213 2472.490558,2226.756606 2473.654421,2226.126195 2474.282637,2227.277024 2477.332027,2232.930184 2477.960113,2234.092114 2481.315485,2240.292841 2481.943698,2241.443670 2485.307375,2247.655598 2485.927018,2248.817430 2488.976647,2254.448394 2489.613299,2255.599323 2491.546899,2259.196712 2509.793806,2249.405615 2517.115931,2262.946636 2463.275938,2291.830863 2408.264217,2321.334698"/>
    <poly id="109284795" type="building" color="255,230,230" fill="1" layer="-1.00" shape="2673.112632,2200.634685 2676.229281,2206.299816 2679.832815,2212.925412 2684.510892,2221.517519 2688.081423,2228.076121 2694.941298,2240.690455 2698.916873,2247.986529 2701.678287,2252.981399 2640.383981,2286.884579 2610.905684,2302.795240 2583.364380,2317.662728 2576.322444,2304.724417 2581.946192,2301.692297 2566.845995,2273.916484 2561.086277,2277.024750 2554.416220,2264.768023 2611.529588,2233.935226 2673.112632,2200.634685"/>
    <poly id="109284804" type="building" color="255,230,230" fill="1" layer="-1.00" shape="2323.982648,2002.355427 2323.519090,2001.561793 2323.910080,2001.333180 2320.048440,1994.360609 2319.666020,1994.578220 2319.202461,1993.784586 2319.593451,1993.555973 2315.723363,1986.583307 2315.340942,1986.800918 2314.877382,1986.007284 2315.276813,1985.778768 2311.415029,1978.817303 2311.032479,1979.046015 2310.568918,1978.252382 2310.968478,1978.012765 2307.098373,1971.040104 2306.724393,1971.257814 2306.252390,1970.464083 2306.651822,1970.235567 2302.781708,1963.262908 2302.390846,1963.480422 2301.927283,1962.686789 2302.326715,1962.458273 2298.464905,1955.496815 2298.091054,1955.703424 2297.627490,1954.909792 2298.383892,1954.474471 2298.624050,1954.876935 2305.616603,1951.027802 2305.384757,1950.636536 2306.149730,1950.190212 2306.389760,1950.603778 2313.373880,1946.754554 2313.150475,1946.363386 2313.915320,1945.928164 2314.147037,1946.330531 2321.139606,1942.481412 2320.907889,1942.079045 2321.672735,1941.643824 2321.912764,1942.057390 2328.905471,1938.197178 2328.673625,1937.805911 2329.438601,1937.359590 2329.678630,1937.773156 2336.671215,1933.924052 2336.439370,1933.532785 2337.195906,1933.086366 2337.667908,1933.880099 2337.285355,1934.108809 2341.155453,1941.081486 2341.520995,1940.863681 2341.992996,1941.657413 2341.602003,1941.886026 2345.463780,1948.847506 2345.837762,1948.629799 2346.301193,1949.434535 2345.918769,1949.652144 2349.772226,1956.602428 2350.129197,1956.395626 2350.592756,1957.189262 2350.218774,1957.406969 2354.097288,1964.379751 2354.454259,1964.172949 2354.917816,1964.966584 2354.543705,1965.195392 2358.413770,1972.168078 2358.779311,1971.950274 2359.251308,1972.744008 2358.860316,1972.972619 2362.730501,1979.934208 2363.095912,1979.727504 2363.559467,1980.521140 2362.794494,1980.967458 2362.562781,1980.565089 2355.578665,1984.414267 2355.802195,1984.794336 2355.045664,1985.240752 2354.805509,1984.838286 2347.804391,1988.698375 2348.027793,1989.089545 2347.262950,1989.524763 2347.031236,1989.122395 2340.047137,1992.971587 2340.270667,1993.351655 2339.505697,1993.797975 2339.273983,1993.395608 2332.281451,1997.244709 2332.504853,1997.635878 2331.748324,1998.082296 2331.508297,1997.668730 2324.515773,2001.517839 2324.747617,2001.909105 2323.982648,2002.355427"/>
    <poly id="109284807" type="building" color="255,230,230" fill="1" layer="-1.00" shape="2702.570981,2152.416467 2700.520185,2148.739940 2697.768463,2143.634163 2686.628806,2123.009677 2683.927967,2117.882293 2681.903380,2114.128362 2704.066981,2102.251703 2701.918371,2098.274277 2710.438005,2093.788276 2709.182009,2091.453275 2762.633951,2062.754994 2763.889807,2065.101104 2770.789981,2077.882508 2772.285701,2080.653302 2761.497019,2086.422854 2769.702633,2101.639764 2780.355339,2095.946355 2781.850923,2098.728251 2788.726227,2111.464975 2789.990507,2113.811188 2735.596963,2142.920182 2709.693854,2156.951434 2704.164898,2155.454845 2702.570981,2152.416467"/>
    <poly id="109285745" type="building" color="255,230,230" fill="1" layer="-1.00" shape="1958.058085,1736.186851 1950.727876,1722.479810 1930.679296,1684.978265 1940.380840,1679.761173 1967.268380,1665.294515 1978.599182,1714.197384 1980.875145,1724.004720 1973.135365,1728.223006 1970.799006,1729.494988 1958.058085,1736.186851"/>
    <poly id="113690621" type="tourism" color="207,245,201" fill="1" layer="-2.00" shape="2377.902247,1816.840730 2397.456068,1806.542696 2404.582841,1802.784027 2418.871473,1829.339882 2425.441263,1841.561991 2421.465269,1843.714080 2429.646664,1858.919198 2425.663397,1860.971281 2406.732064,1870.743556 2405.425930,1868.352518 2379.786149,1820.370893 2377.902247,1816.840730"/>
    <poly id="113690622" type="water" color="181,209,209" fill="1" layer="-4.00" shape="2449.047472,2194.765213 2470.998135,2182.996422 2454.626386,2152.708086 2432.675533,2164.488027 2449.047472,2194.765213"/>
    <poly id="113722987" type="landuse" color="194,194,130" fill="1" layer="-3.00" shape="2285.649639,1514.034641 2285.667905,1512.458337 2285.914094,1510.884673 2287.291455,1509.324119 2265.580010,1468.238567 2263.531865,1468.670030 2261.280056,1467.733561 2260.392492,1466.368807 2189.282361,1505.480054 2193.265710,1513.641887 2196.431298,1513.678532 2200.956581,1514.408155 2205.457742,1516.491972 2208.592571,1519.914444 2211.718956,1523.336819 2213.489548,1527.187587 2214.568532,1531.707582 2213.382482,1536.434499 2212.204274,1540.484271 2210.339732,1544.748141 2214.781449,1552.693250 2285.649639,1514.034641"/>
    <poly id="113722987#1" type="leisure" color="207,245,201" fill="1" layer="-2.00" shape="2285.649639,1514.034641 2285.667905,1512.458337 2285.914094,1510.884673 2287.291455,1509.324119 2265.580010,1468.238567 2263.531865,1468.670030 2261.280056,1467.733561 2260.392492,1466.368807 2189.282361,1505.480054 2193.265710,1513.641887 2196.431298,1513.678532 2200.956581,1514.408155 2205.457742,1516.491972 2208.592571,1519.914444 2211.718956,1523.336819 2213.489548,1527.187587 2214.568532,1531.707582 2213.382482,1536.434499 2212.204274,1540.484271 2210.339732,1544.748141 2214.781449,1552.693250 2285.649639,1514.034641"/>
    <poly id="114071252" type="building" color="255,230,230" fill="1" layer="-1.00" shape="2688.997938,1277.090556 2687.935987,1277.655509 2661.395712,1291.779493 2661.585869,1292.125875 2664.346010,1297.265028 2664.643456,1297.823601 2667.287861,1302.750466 2668.924069,1305.800420 2670.229708,1308.235905 2673.171551,1313.721346 2682.005493,1330.177774 2683.145777,1332.311575 2684.947318,1335.663219 2687.682617,1340.757684 2687.889138,1341.148666 2690.822770,1346.611815 2717.354470,1332.487840 2718.416415,1331.922891 2717.474219,1330.179968 2715.276277,1326.068748 2714.648274,1324.895699 2712.929611,1321.678240 2712.541249,1320.952071 2710.805701,1317.734416 2710.177697,1316.561368 2708.442534,1313.310411 2708.054042,1312.595343 2706.310306,1309.355389 2705.682301,1308.182342 2703.947134,1304.931386 2703.558641,1304.216319 2701.831655,1300.987663 2701.195207,1299.814517 2699.460036,1296.563563 2699.079984,1295.848594 2697.336110,1292.619743 2696.708102,1291.446696 2694.980981,1288.229143 2694.592616,1287.502976 2692.873676,1284.307723 2692.245667,1283.134677 2689.931706,1278.833376 2688.997938,1277.090556"/>
    <poly id="114193930" type="building" color="255,230,230" fill="1" layer="-1.00" shape="2361.922623,986.097754 2333.595275,932.933853 2282.086137,961.025035 2291.728443,978.511723 2294.763011,976.759428 2304.526753,994.691631 2294.773152,999.929873 2303.288214,1015.593855 2303.850701,1016.599573 2361.922623,986.097754"/>
    <poly id="118116797" type="building" color="255,230,230" fill="1" layer="-1.00" shape="2779.120438,2028.796618 2752.530476,1978.570982 2753.414423,1975.161788 2806.082114,1947.198511 2807.372260,1949.500619 2808.123830,1950.930471 2810.465150,1955.032299 2815.670536,1964.740860 2817.926402,1968.930512 2823.846175,1979.635511 2826.136184,1983.792258 2831.695274,1993.571570 2834.165409,1998.207818 2834.816324,1999.580988 2835.774895,2001.357428 2782.519340,2029.802135 2779.120438,2028.796618"/>
    <poly id="118116797#1" type="shop" color="237,199,255" fill="1" layer="-1.00" shape="2779.120438,2028.796618 2752.530476,1978.570982 2753.414423,1975.161788 2806.082114,1947.198511 2807.372260,1949.500619 2808.123830,1950.930471 2810.465150,1955.032299 2815.670536,1964.740860 2817.926402,1968.930512 2823.846175,1979.635511 2826.136184,1983.792258 2831.695274,1993.571570 2834.165409,1998.207818 2834.816324,1999.580988 2835.774895,2001.357428 2782.519340,2029.802135 2779.120438,2028.796618"/>
    <poly id="118116797#2" type="tourism" color="207,245,201" fill="1" layer="-2.00" shape="2779.120438,2028.796618 2752.530476,1978.570982 2753.414423,1975.161788 2806.082114,1947.198511 2807.372260,1949.500619 2808.123830,1950.930471 2810.465150,1955.032299 2815.670536,1964.740860 2817.926402,1968.930512 2823.846175,1979.635511 2826.136184,1983.792258 2831.695274,1993.571570 2834.165409,1998.207818 2834.816324,1999.580988 2835.774895,2001.357428 2782.519340,2029.802135 2779.120438,2028.796618"/>
    <poly id="118116810" type="building" color="255,230,230" fill="1" layer="-1.00" shape="3320.950741,2101.091044 3291.821569,2047.436277 3190.110622,2102.221972 3200.828849,2121.954133 3195.102760,2125.040105 3209.630508,2151.789132 3215.364894,2148.714371 3219.240288,2155.876335 3320.950741,2101.091044"/>
    <poly id="118476490" type="building" color="255,230,230" fill="1" layer="-1.00" shape="3020.145325,1991.819586 3018.533707,1988.858647 3016.624699,1985.339120 3014.252851,1980.970412 3010.384956,1973.864164 3009.632907,1972.478693 3008.864236,1971.070824 3008.103876,1969.674155 3007.343515,1968.277485 3006.591595,1966.880914 3005.848765,1965.428938 3004.277178,1966.265446 3003.698887,1965.181768 3003.525257,1964.868875 3002.789959,1963.494704 3002.021026,1962.109037 3001.260664,1960.712368 3000.500301,1959.315699 2999.731367,1957.930032 2998.970874,1956.544465 2995.069316,1949.426730 2992.696924,1945.102432 2990.853734,1941.728011 2989.564162,1939.381467 2989.307806,1938.923279 3005.866796,1929.935214 3030.105391,1916.862507 3059.353727,1970.639685 3035.081096,1983.745204 3020.145325,1991.819586"/>
    <poly id="118476491" type="building" color="255,230,230" fill="1" layer="-1.00" shape="2914.636837,1949.708515 2892.923729,1909.176060 2940.064828,1883.924773 2950.922881,1904.057853 2961.760880,1924.457170 2914.636837,1949.708515"/>
    <poly id="118476493" type="building" color="255,230,230" fill="1" layer="-1.00" shape="3172.895278,2180.246976 3144.058087,2126.829371 3102.989870,2148.997357 3116.458384,2173.946335 3105.872783,2179.662256 3121.250128,2208.130798 3172.895278,2180.246976"/>
    <poly id="118476502" type="building" color="255,230,230" fill="1" layer="-1.00" shape="2752.390162,2246.333547 2764.814591,2268.960425 2769.079521,2266.634253 2771.608940,2271.248970 2780.826091,2288.020909 2786.570590,2298.535107 2825.753322,2277.187189 2867.034747,2254.698226 2837.102640,2200.181064 2795.821014,2222.670195 2752.390162,2246.333547"/>
    <poly id="134014939" type="landuse" color="194,194,130" fill="1" layer="-3.00" shape="3361.253794,646.023355 3272.940052,694.359657 3345.875621,834.825574 3371.540357,881.189906 3378.861591,883.285314 3487.805163,824.567765 3433.096285,737.816126 3361.253794,646.023355"/>
    <poly id="134658131" type="building" color="255,230,230" fill="1" layer="-1.00" shape="2311.251590,2825.072763 2310.500407,2823.609657 2303.813717,2811.341849 2299.309242,2803.062852 2299.069628,2802.615983 2294.854755,2794.839949 2290.590390,2786.963423 2287.334348,2780.941562 2284.078044,2774.941905 2282.359300,2771.746737 2328.979219,2747.107418 2332.975820,2764.240137 2339.100878,2792.177834 2342.372926,2808.458385 2311.251590,2825.072763"/>
    <poly id="137564642" type="building" color="255,230,230" fill="1" layer="-1.00" shape="2811.372318,1558.648084 2811.702990,1559.251461 2890.396231,1516.648570 2890.015950,1515.955793 2890.636202,1515.618862 2865.704631,1469.320235 2851.762836,1443.500303 2845.056351,1431.442754 2839.788465,1434.301205 2831.862486,1419.664828 2819.372699,1426.424785 2773.493456,1451.136482 2762.472072,1457.236408 2770.315278,1471.738518 2766.084054,1474.031784 2766.274072,1474.389270 2765.416036,1474.845566 2772.075223,1487.346579 2785.274281,1511.714408 2810.921941,1558.898185 2811.372318,1558.648084"/>
    <poly id="137707119" type="building" color="255,230,230" fill="1" layer="-1.00" shape="2338.703155,2445.128057 2330.473944,2429.722618 2333.565608,2428.093138 2323.683787,2409.604322 2320.591989,2411.244907 2312.544403,2396.185766 2341.431409,2380.944322 2389.142200,2355.640741 2397.304777,2351.327883 2405.645648,2346.928285 2420.740903,2338.810141 2424.707990,2346.128169 2442.808096,2380.211291 2446.890728,2387.752720 2431.795669,2395.859710 2423.675579,2400.150818 2415.300607,2404.583305 2367.581590,2429.886618 2338.703155,2445.128057"/>
    <poly id="137716320" type="building" color="255,230,230" fill="1" layer="-1.00" shape="2111.325895,2022.718865 2086.009805,1974.375652 2136.180043,1948.243978 2139.834669,1955.613732 2140.322032,1956.540856 2142.660246,1960.942188 2149.930893,1974.637649 2159.664450,1969.554445 2170.766125,1990.688350 2173.878236,1996.786189 2142.095689,2013.382583 2139.328706,2008.099214 2111.325895,2022.718865"/>
    <poly id="137860913" type="building" color="255,230,230" fill="1" layer="-1.00" shape="2997.622269,1731.674616 2993.228111,1723.352088 2987.519731,1726.349614 2969.545962,1692.355466 2975.424225,1689.271093 2970.848195,1680.613388 3065.469969,1630.993072 3092.404889,1681.978817 2997.622269,1731.674616"/>
    <poly id="137874157" type="building" color="255,230,230" fill="1" layer="-1.00" shape="2183.627309,2437.357982 2118.373741,2472.351974 2117.712501,2471.134180 2115.487099,2472.318578 2092.428355,2429.663520 2094.755694,2428.424783 2094.119383,2427.240587 2159.279731,2392.300809 2183.627309,2437.357982"/>
    <poly id="137874843" type="amenity" color="237,199,199" fill="1" layer="-1.00" shape="2089.594237,2424.357182 2060.170414,2440.092984 2065.765405,2450.471646 2067.418209,2453.543870 2069.616660,2457.610503 2074.988352,2467.586910 2081.765127,2480.155289 2083.624692,2483.596282 2089.137008,2493.818577 2118.560815,2478.071790 2115.487099,2472.318578 2092.428355,2429.663520 2089.594237,2424.357182"/>
    <poly id="137874843#1" type="building" color="255,230,230" fill="1" layer="-1.00" shape="2089.594237,2424.357182 2060.170414,2440.092984 2065.765405,2450.471646 2067.418209,2453.543870 2069.616660,2457.610503 2074.988352,2467.586910 2081.765127,2480.155289 2083.624692,2483.596282 2089.137008,2493.818577 2118.560815,2478.071790 2115.487099,2472.318578 2092.428355,2429.663520 2089.594237,2424.357182"/>
    <poly id="137880206" type="building" color="255,230,230" fill="1" layer="-1.00" shape="3326.635194,2002.247530 3349.680448,1989.461620 3360.011458,1983.898481 3348.599493,1962.870084 3345.550118,1957.260962 3341.715896,1950.188235 3336.117143,1953.197881 3331.563641,1944.828858 3337.230448,1941.775597 3335.710103,1938.959988 3325.311002,1944.566772 3302.072572,1956.540028 3278.826671,1969.157199 3291.375979,1991.841956 3326.635194,2002.247530"/>
    <poly id="137883073" type="building" color="255,230,230" fill="1" layer="-1.00" shape="2927.131805,2493.310258 2922.772219,2485.676496 2920.722797,2481.899996 2916.516682,2474.134804 2914.277398,2469.989714 2912.641826,2466.917493 2925.844692,2459.677555 2928.622627,2458.177884 2955.033647,2443.975705 2957.938850,2442.422020 2960.054547,2441.247691 2966.000785,2438.075299 2980.096131,2463.553173 2927.131805,2493.310258"/>
    <poly id="137885993" type="building" color="255,230,230" fill="1" layer="-1.00" shape="3158.764884,1916.935486 3157.888839,1915.326503 3143.831551,1889.437987 3164.027320,1878.472226 3162.886872,1876.371647 3168.010303,1873.578351 3180.551113,1866.752973 3183.635413,1865.068240 3185.377166,1864.122740 3187.730715,1862.840235 3189.829339,1861.699074 3204.015863,1888.077693 3204.204808,1888.523997 3204.412966,1889.492333 3204.396593,1890.169380 3204.243731,1890.966953 3203.827763,1891.883569 3203.535953,1892.290935 3203.194016,1892.653304 3202.384954,1893.254452 3158.764884,1916.935486"/>
    <poly id="137891657" type="building" color="255,230,230" fill="1" layer="-1.00" shape="3212.533956,1908.994233 3185.441491,1923.509532 3192.043710,1935.732739 3136.185487,1965.665481 3147.819972,1987.206843 3132.961347,1995.170881 3143.794296,2015.226256 3241.603108,1962.825578 3212.533956,1908.994233"/>
    <poly id="138022483" type="building" color="255,230,230" fill="1" layer="-1.00" shape="2639.633687,1371.984168 2644.221289,1369.539544 2645.031270,1371.036669 2660.272257,1362.920660 2675.564315,1354.771969 2690.822770,1346.611815 2687.889138,1341.148666 2687.682617,1340.757684 2684.947318,1335.663219 2683.145777,1332.311575 2682.005493,1330.177774 2673.171551,1313.721346 2670.229708,1308.235905 2668.924069,1305.800420 2667.287861,1302.750466 2664.643456,1297.823601 2664.346010,1297.265028 2661.585869,1292.125875 2661.395712,1291.779493 2646.121072,1299.872907 2630.871534,1307.988848 2615.486056,1316.180954 2610.584149,1318.788473 2610.938883,1319.503142 2618.287136,1333.044527 2612.484213,1336.174471 2600.054495,1342.857778 2593.903280,1346.172423 2587.386881,1349.671565 2595.621887,1364.644325 2602.052956,1361.221914 2608.246242,1357.918867 2626.791979,1348.042665 2639.633687,1371.984168"/>
    <poly id="138141251" type="building" color="255,230,230" fill="1" layer="-1.00" shape="1326.499713,1142.116525 1335.129167,1137.641303 1335.167547,1135.765474 1336.089324,1126.794372 1338.151409,1117.780826 1341.442390,1109.836070 1349.783226,1109.920553 1350.840268,1111.986570 1354.478706,1104.667524 1359.831009,1097.357020 1365.521856,1091.449276 1372.712977,1085.769676 1380.447921,1081.262046 1388.329020,1077.999543 1396.349353,1075.848864 1405.143346,1074.706262 1414.134261,1074.798271 1415.618790,1074.926319 1422.218231,1066.364514 1425.790663,1067.016111 1434.726590,1069.694323 1438.531869,1071.392202 1438.842194,1081.876224 1446.337929,1086.447504 1451.243000,1078.388087 1454.064917,1080.429961 1460.185865,1084.874459 1457.603412,1088.453035 1463.869115,1094.997510 1469.045948,1102.251136 1473.179434,1109.925777 1476.418091,1118.322894 1478.673679,1127.774539 1482.504528,1127.241197 1482.901020,1135.361446 1482.916919,1139.125270 1473.406118,1138.727449 1472.877093,1147.303368 1481.650950,1152.322341 1480.571115,1157.394748 1477.754058,1165.966608 1476.063793,1169.788564 1465.546401,1169.556835 1461.221248,1176.379453 1455.340749,1183.361860 1449.317188,1188.832734 1442.287227,1193.714751 1434.261730,1197.797099 1426.539057,1200.506258 1418.532382,1202.212971 1410.436121,1202.897264 1401.702183,1202.497341 1400.083501,1202.290041 1401.331791,1205.346355 1396.907156,1211.279693 1395.525612,1211.008501 1389.881632,1209.889076 1382.497007,1207.417436 1381.285828,1207.014974 1378.800260,1205.831850 1373.115378,1203.124357 1368.503633,1200.340353 1360.669169,1204.702523 1326.499713,1142.116525"/>
    <poly id="138141251#1" type="leisure" color="207,245,201" fill="1" layer="-2.00" shape="1326.499713,1142.116525 1335.129167,1137.641303 1335.167547,1135.765474 1336.089324,1126.794372 1338.151409,1117.780826 1341.442390,1109.836070 1349.783226,1109.920553 1350.840268,1111.986570 1354.478706,1104.667524 1359.831009,1097.357020 1365.521856,1091.449276 1372.712977,1085.769676 1380.447921,1081.262046 1388.329020,1077.999543 1396.349353,1075.848864 1405.143346,1074.706262 1414.134261,1074.798271 1415.618790,1074.926319 1422.218231,1066.364514 1425.790663,1067.016111 1434.726590,1069.694323 1438.531869,1071.392202 1438.842194,1081.876224 1446.337929,1086.447504 1451.243000,1078.388087 1454.064917,1080.429961 1460.185865,1084.874459 1457.603412,1088.453035 1463.869115,1094.997510 1469.045948,1102.251136 1473.179434,1109.925777 1476.418091,1118.322894 1478.673679,1127.774539 1482.504528,1127.241197 1482.901020,1135.361446 1482.916919,1139.125270 1473.406118,1138.727449 1472.877093,1147.303368 1481.650950,1152.322341 1480.571115,1157.394748 1477.754058,1165.966608 1476.063793,1169.788564 1465.546401,1169.556835 1461.221248,1176.379453 1455.340749,1183.361860 1449.317188,1188.832734 1442.287227,1193.714751 1434.261730,1197.797099 1426.539057,1200.506258 1418.532382,1202.212971 1410.436121,1202.897264 1401.702183,1202.497341 1400.083501,1202.290041 1401.331791,1205.346355 1396.907156,1211.279693 1395.525612,1211.008501 1389.881632,1209.889076 1382.497007,1207.417436 1381.285828,1207.014974 1378.800260,1205.831850 1373.115378,1203.124357 1368.503633,1200.340353 1360.669169,1204.702523 1326.499713,1142.116525"/>
    <poly id="138141251#2" type="sport" color="79,230,125" fill="1" layer="-2.00" shape="1326.499713,1142.116525 1335.129167,1137.641303 1335.167547,1135.765474 1336.089324,1126.794372 1338.151409,1117.780826 1341.442390,1109.836070 1349.783226,1109.920553 1350.840268,1111.986570 1354.478706,1104.667524 1359.831009,1097.357020 1365.521856,1091.449276 1372.712977,1085.769676 1380.447921,1081.262046 1388.329020,1077.999543 1396.349353,1075.848864 1405.143346,1074.706262 1414.134261,1074.798271 1415.618790,1074.926319 1422.218231,1066.364514 1425.790663,1067.016111 1434.726590,1069.694323 1438.531869,1071.392202 1438.842194,1081.876224 1446.337929,1086.447504 1451.243000,1078.388087 1454.064917,1080.429961 1460.185865,1084.874459 1457.603412,1088.453035 1463.869115,1094.997510 1469.045948,1102.251136 1473.179434,1109.925777 1476.418091,1118.322894 1478.673679,1127.774539 1482.504528,1127.241197 1482.901020,1135.361446 1482.916919,1139.125270 1473.406118,1138.727449 1472.877093,1147.303368 1481.650950,1152.322341 1480.571115,1157.394748 1477.754058,1165.966608 1476.063793,1169.788564 1465.546401,1169.556835 1461.221248,1176.379453 1455.340749,1183.361860 1449.317188,1188.832734 1442.287227,1193.714751 1434.261730,1197.797099 1426.539057,1200.506258 1418.532382,1202.212971 1410.436121,1202.897264 1401.702183,1202.497341 1400.083501,1202.290041 1401.331791,1205.346355 1396.907156,1211.279693 1395.525612,1211.008501 1389.881632,1209.889076 1382.497007,1207.417436 1381.285828,1207.014974 1378.800260,1205.831850 1373.115378,1203.124357 1368.503633,1200.340353 1360.669169,1204.702523 1326.499713,1142.116525"/>
    <poly id="138141251#3" type="tourism" color="207,245,201" fill="1" layer="-2.00" shape="1326.499713,1142.116525 1335.129167,1137.641303 1335.167547,1135.765474 1336.089324,1126.794372 1338.151409,1117.780826 1341.442390,1109.836070 1349.783226,1109.920553 1350.840268,1111.986570 1354.478706,1104.667524 1359.831009,1097.357020 1365.521856,1091.449276 1372.712977,1085.769676 1380.447921,1081.262046 1388.329020,1077.999543 1396.349353,1075.848864 1405.143346,1074.706262 1414.134261,1074.798271 1415.618790,1074.926319 1422.218231,1066.364514 1425.790663,1067.016111 1434.726590,1069.694323 1438.531869,1071.392202 1438.842194,1081.876224 1446.337929,1086.447504 1451.243000,1078.388087 1454.064917,1080.429961 1460.185865,1084.874459 1457.603412,1088.453035 1463.869115,1094.997510 1469.045948,1102.251136 1473.179434,1109.925777 1476.418091,1118.322894 1478.673679,1127.774539 1482.504528,1127.241197 1482.901020,1135.361446 1482.916919,1139.125270 1473.406118,1138.727449 1472.877093,1147.303368 1481.650950,1152.322341 1480.571115,1157.394748 1477.754058,1165.966608 1476.063793,1169.788564 1465.546401,1169.556835 1461.221248,1176.379453 1455.340749,1183.361860 1449.317188,1188.832734 1442.287227,1193.714751 1434.261730,1197.797099 1426.539057,1200.506258 1418.532382,1202.212971 1410.436121,1202.897264 1401.702183,1202.497341 1400.083501,1202.290041 1401.331791,1205.346355 1396.907156,1211.279693 1395.525612,1211.008501 1389.881632,1209.889076 1382.497007,1207.417436 1381.285828,1207.014974 1378.800260,1205.831850 1373.115378,1203.124357 1368.503633,1200.340353 1360.669169,1204.702523 1326.499713,1142.116525"/>
    <poly id="138147416" type="building" color="255,230,230" fill="1" layer="-1.00" shape="1583.825514,1213.614212 1534.246597,1240.211657 1530.212132,1232.749056 1497.929852,1250.075246 1495.317281,1245.249106 1462.389611,1262.912207 1460.504617,1259.426692 1456.333430,1261.665875 1452.943863,1263.481045 1441.187539,1241.730193 1444.662169,1239.860483 1448.739867,1237.675731 1446.854987,1234.179119 1468.339531,1222.657345 1479.782744,1216.515949 1477.170148,1211.689816 1509.452541,1194.363534 1505.418024,1186.900948 1554.997181,1160.303308 1572.019726,1191.784862 1576.492410,1200.051880 1583.825514,1213.614212"/>
    <poly id="138147417" type="building" color="255,230,230" fill="1" layer="-1.00" shape="1509.030468,1112.735402 1503.656335,1102.814956 1492.494205,1082.247685 1491.295339,1080.035690 1486.367599,1070.941945 1466.106914,1081.722773 1460.185865,1084.874459 1457.603412,1088.453035 1463.869115,1094.997510 1469.045948,1102.251136 1473.179434,1109.925777 1476.418091,1118.322894 1478.673679,1127.774539 1482.504528,1127.241197 1487.780903,1124.348581 1509.030468,1112.735402"/>
    <poly id="138152330" type="building" color="255,230,230" fill="1" layer="-1.00" shape="1674.239619,1791.291054 1673.796970,1791.607924 1652.894372,1753.386792 1653.447525,1753.004578 1652.240381,1750.792455 1654.066879,1749.803166 1662.043824,1745.498463 1659.538728,1740.895534 1659.315666,1740.471084 1681.878702,1728.307327 1682.126577,1728.776472 1684.606723,1733.345815 1695.879759,1727.269419 1693.880910,1723.427255 1758.847349,1688.814714 1770.723626,1711.000497 1773.806131,1716.775849 1785.690246,1739.006158 1784.866324,1739.440754 1785.426775,1740.624045 1721.982123,1775.076233 1718.598019,1769.097591 1707.325026,1775.173952 1709.830208,1779.765797 1710.103147,1780.257436 1687.540344,1792.410005 1687.275846,1791.918464 1684.762213,1787.326530 1676.989165,1791.522532 1674.958935,1792.609391 1674.239619,1791.291054"/>
    <poly id="138152331" type="building" color="255,230,230" fill="1" layer="-1.00" shape="1714.232258,1759.654864 1733.229282,1749.248769 1722.629157,1729.875494 1703.632612,1740.237213 1714.232258,1759.654864"/>